
     RDKit          3D

 31 34  0  0  0  0  0  0  0  0999 V2000
    6.4988   11.2601   27.5153 C   0  0  0  0  0  0  0  0  0  0  0  0
    7.3672   10.4216   26.7655 O   0  0  0  0  0  0  0  0  0  0  0  0
    8.3039    9.6954   27.4542 C   0  0  0  0  0  0  0  0  0  0  0  0
    8.0520    8.4900   28.1126 C   0  0  0  0  0  0  0  0  0  0  0  0
    9.0869    7.8259   28.7908 C   0  0  0  0  0  0  0  0  0  0  0  0
    8.8738    6.5364   29.5088 C   0  0  0  0  0  0  0  0  0  0  0  0
    9.7924    5.8561   29.9406 O   0  0  0  0  0  0  0  0  0  0  0  0
    7.5221    6.2624   29.5951 O   0  0  0  0  0  0  0  0  0  0  0  0
    7.1838    4.9714   29.1715 C   0  0  0  0  0  0  0  0  0  0  0  0
    7.6720    4.4984   27.9500 C   0  0  0  0  0  0  0  0  0  0  0  0
    7.3062    3.2261   27.4897 C   0  0  0  0  0  0  0  0  0  0  0  0
    6.4295    2.4549   28.2755 C   0  0  0  0  0  0  0  0  0  0  0  0
    5.8129    1.1751   28.2054 C   0  0  0  0  0  0  0  0  0  0  0  0
    5.9522    0.1268   27.1558 C   0  0  0  0  0  0  0  0  0  0  0  0
    6.6955    0.7551   25.9996 C   0  0  0  0  0  0  0  0  0  0  0  0
    6.0001    1.3286   24.9226 C   0  0  0  0  0  0  0  0  0  0  0  0
    6.6913    1.9000   23.8532 C   0  0  0  0  0  0  0  0  0  0  0  0
    8.0843    1.8994   23.8426 C   0  0  0  0  0  0  0  0  0  0  0  0
    8.7878    1.3253   24.8993 C   0  0  0  0  0  0  0  0  0  0  0  0
    8.0988    0.7537   25.9707 C   0  0  0  0  0  0  0  0  0  0  0  0
    5.0457    0.9441   29.2838 N   0  0  0  0  0  0  0  0  0  0  0  0
    5.1371    2.0830   30.0651 O   0  0  0  0  0  0  0  0  0  0  0  0
    5.9638    2.9811   29.4687 C   0  0  0  0  0  0  0  0  0  0  0  0
    6.3001    4.2366   29.9647 C   0  0  0  0  0  0  0  0  0  0  0  0
   10.3811    8.3716   28.8083 C   0  0  0  0  0  0  0  0  0  0  0  0
   10.6507    9.5752   28.1564 C   0  0  0  0  0  0  0  0  0  0  0  0
   11.8769   10.1854   28.1134 O   0  0  0  0  0  0  0  0  0  0  0  0
   13.0102    9.3666   27.8567 C   0  0  0  0  0  0  0  0  0  0  0  0
    9.6007   10.2377   27.4980 C   0  0  0  0  0  0  0  0  0  0  0  0
    9.8642   11.4029   26.8112 O   0  0  0  0  0  0  0  0  0  0  0  0
    9.8691   11.1482   25.4075 C   0  0  0  0  0  0  0  0  0  0  0  0
  1  2  1  0
  2  3  1  0
  3  4  2  0
  4  5  1  0
  5  6  1  0
  6  7  2  0
  6  8  1  0
  8  9  1  0
  9 10  2  0
 10 11  1  0
 11 12  2  0
 12 13  1  0
 13 14  1  0
 14 15  1  0
 15 16  2  0
 16 17  1  0
 17 18  2  0
 18 19  1  0
 19 20  2  0
 13 21  2  0
 21 22  1  0
 22 23  1  0
 23 24  2  0
  5 25  2  0
 25 26  1  0
 26 27  1  0
 27 28  1  0
 26 29  2  0
 29 30  1  0
 30 31  1  0
 29  3  1  0
 24  9  1  0
 23 12  1  0
 20 15  1  0
M  END
