
     RDKit          3D

 23 25  0  0  0  0  0  0  0  0999 V2000
   10.9643    0.7684   26.9361 C   0  0  0  0  0  0  0  0  0  0  0  0
    9.8050    1.0103   26.1060 N   0  0  0  0  0  0  0  0  0  0  0  0
    9.9723    1.0259   24.7668 N   0  0  0  0  0  0  0  0  0  0  0  0
    8.7452    1.2467   24.2971 C   0  0  0  0  0  0  0  0  0  0  0  0
    7.8002    1.3977   25.3243 C   0  0  0  0  0  0  0  0  0  0  0  0
    6.1528    1.7008   25.0723 Cl  0  0  0  0  0  0  0  0  0  0  0  0
    8.5065    1.2550   26.5045 C   0  0  0  0  0  0  0  0  0  0  0  0
    8.0917    1.3236   27.9522 C   0  0  1  0  0  0  0  0  0  0  0  0
    8.6049    2.6231   28.6009 C   0  0  0  0  0  0  0  0  0  0  0  0
    8.3148    2.7035   30.1010 C   0  0  0  0  0  0  0  0  0  0  0  0
    6.9246    3.2402   30.4283 C   0  0  0  0  0  0  0  0  0  0  0  0
    5.7685    2.3644   29.9536 C   0  0  0  0  0  0  0  0  0  0  0  0
    5.7485    2.1547   28.4410 C   0  0  0  0  0  0  0  0  0  0  0  0
    6.6483    1.0721   28.0276 N   0  0  0  0  0  0  0  0  0  0  0  0
    6.2463   -0.2709   27.9943 C   0  0  0  0  0  0  0  0  0  0  0  0
    5.1243   -0.6591   28.3124 O   0  0  0  0  0  0  0  0  0  0  0  0
    7.2130   -1.3011   27.5660 C   0  0  0  0  0  0  0  0  0  0  0  0
    7.8432   -2.1094   28.5216 C   0  0  0  0  0  0  0  0  0  0  0  0
    8.7308   -3.1007   28.1029 C   0  0  0  0  0  0  0  0  0  0  0  0
    8.9643   -3.2822   26.7421 C   0  0  0  0  0  0  0  0  0  0  0  0
    9.8171   -4.2348   26.3432 F   0  0  0  0  0  0  0  0  0  0  0  0
    8.3221   -2.4970   25.7878 C   0  0  0  0  0  0  0  0  0  0  0  0
    7.4329   -1.5038   26.1991 C   0  0  0  0  0  0  0  0  0  0  0  0
  1  2  1  0
  2  3  1  0
  3  4  2  0
  4  5  1  0
  5  6  1  0
  5  7  2  0
  8  7  1  6
  8  9  1  0
  9 10  1  0
 10 11  1  0
 11 12  1  0
 12 13  1  0
 13 14  1  0
 14 15  1  0
 15 16  2  0
 15 17  1  0
 17 18  2  0
 18 19  1  0
 19 20  2  0
 20 21  1  0
 20 22  1  0
 22 23  2  0
  7  2  1  0
 14  8  1  0
 23 17  1  0
M  END
