
     RDKit          3D

 29 32  0  0  0  0  0  0  0  0999 V2000
    5.4846    2.8579   28.0801 C   0  0  0  0  0  0  0  0  0  0  0  0
    4.2762    2.5362   27.2976 C   0  0  0  0  0  0  0  0  0  0  0  0
    3.5787    3.5950   26.8111 O   0  0  0  0  0  0  0  0  0  0  0  0
    2.4471    3.1449   26.1611 N   0  0  0  0  0  0  0  0  0  0  0  0
    2.4635    1.8074   26.2720 C   0  0  0  0  0  0  0  0  0  0  0  0
    1.3781    1.0040   25.7411 C   0  0  0  0  0  0  0  0  0  0  0  0
    1.6176   -0.3370   25.4258 C   0  0  0  0  0  0  0  0  0  0  0  0
    2.8304   -0.8763   25.6225 F   0  0  0  0  0  0  0  0  0  0  0  0
    0.6122   -1.1514   24.9078 C   0  0  0  0  0  0  0  0  0  0  0  0
   -0.6620   -0.6297   24.6997 C   0  0  0  0  0  0  0  0  0  0  0  0
   -0.9220    0.7050   25.0146 C   0  0  0  0  0  0  0  0  0  0  0  0
    0.0921    1.5205   25.5348 C   0  0  0  0  0  0  0  0  0  0  0  0
   -0.3126    3.1648   25.8910 Cl  0  0  0  0  0  0  0  0  0  0  0  0
    3.6425    1.3664   26.9334 C   0  0  0  0  0  0  0  0  0  0  0  0
    4.0456    0.0211   27.2760 C   0  0  0  0  0  0  0  0  0  0  0  0
    3.3055   -0.6827   27.9591 O   0  0  0  0  0  0  0  0  0  0  0  0
    5.2980   -0.4282   26.8279 N   0  0  0  0  0  0  0  0  0  0  0  0
    5.8240   -1.7673   27.1062 C   0  0  0  0  0  0  0  0  0  0  0  0
    6.5746   -1.8067   28.4361 C   0  0  0  0  0  0  0  0  0  0  0  0
    7.9975   -1.2603   28.3681 C   0  0  0  0  0  0  0  0  0  0  0  0
    8.1032    0.1860   27.8907 C   0  0  0  0  0  0  0  0  0  0  0  0
    7.6971    0.3582   26.4279 C   0  0  0  0  0  0  0  0  0  0  0  0
    6.1855    0.5766   26.2287 C   0  0  1  0  0  0  0  0  0  0  0  0
    5.8228    0.6588   24.7695 C   0  0  0  0  0  0  0  0  0  0  0  0
    5.6673    1.8389   24.0017 C   0  0  0  0  0  0  0  0  0  0  0  0
    5.3347    1.5893   22.7334 N   0  0  0  0  0  0  0  0  0  0  0  0
    5.2686    0.2494   22.6793 N   0  0  0  0  0  0  0  0  0  0  0  0
    4.9360   -0.3947   21.4317 C   0  0  0  0  0  0  0  0  0  0  0  0
    5.5422   -0.3551   23.8711 C   0  0  0  0  0  0  0  0  0  0  0  0
  1  2  1  0
  2  3  1  0
  3  4  1  0
  4  5  2  0
  5  6  1  0
  6  7  2  0
  7  8  1  0
  7  9  1  0
  9 10  2  0
 10 11  1  0
 11 12  2  0
 12 13  1  0
  5 14  1  0
 14 15  1  0
 15 16  2  0
 15 17  1  0
 17 18  1  0
 18 19  1  0
 19 20  1  0
 20 21  1  0
 21 22  1  0
 22 23  1  0
 23 24  1  6
 24 25  1  0
 25 26  2  0
 26 27  1  0
 27 28  1  0
 27 29  1  0
 14  2  2  0
 23 17  1  0
 29 24  2  0
 12  6  1  0
M  END
