
     RDKit          3D

 34 38  0  0  0  0  0  0  0  0999 V2000
   12.3836    8.9612   25.5189 C   0  0  0  0  0  0  0  0  0  0  0  0
   11.0398    8.5178   25.3556 O   0  0  0  0  0  0  0  0  0  0  0  0
   10.8573    7.3103   24.7415 C   0  0  0  0  0  0  0  0  0  0  0  0
    9.5301    6.8863   24.6659 C   0  0  0  0  0  0  0  0  0  0  0  0
    9.1968    5.6642   24.0697 C   0  0  0  0  0  0  0  0  0  0  0  0
   10.1918    4.8408   23.5369 C   0  0  0  0  0  0  0  0  0  0  0  0
    9.9519    3.6124   22.9873 O   0  0  0  0  0  0  0  0  0  0  0  0
    8.6752    3.4036   22.3932 C   0  0  0  0  0  0  0  0  0  0  0  0
   11.5233    5.2658   23.6277 C   0  0  0  0  0  0  0  0  0  0  0  0
   12.8400    4.2368   23.0154 S   0  0  0  0  0  0  0  0  0  0  0  0
   12.5080    3.8328   21.6672 O   0  0  0  0  0  0  0  0  0  0  0  0
   14.0914    4.9082   23.3084 O   0  0  0  0  0  0  0  0  0  0  0  0
   12.7736    2.8789   24.0094 N   0  0  0  0  0  0  0  0  0  0  0  0
   12.4910    1.5811   23.3664 C   0  0  0  0  0  0  0  0  0  0  0  0
   12.9375    0.4303   24.3009 C   0  0  1  0  0  0  0  0  0  0  0  0
   11.7670   -0.0539   25.1868 C   0  0  0  0  0  0  0  0  0  0  0  0
   11.7559   -1.5944   25.2338 C   0  0  2  0  0  0  0  0  0  0  0  0
   13.1681   -2.0393   25.6649 C   0  0  0  0  0  0  0  0  0  0  0  0
   14.1897   -1.6079   24.5954 C   0  0  0  0  0  0  0  0  0  0  0  0
   13.5747   -0.7203   23.5778 N   0  0  0  0  0  0  0  0  0  0  0  0
   12.5385   -1.4980   22.8510 C   0  0  0  0  0  0  0  0  0  0  0  0
   11.5210   -2.1640   23.8125 C   0  0  2  0  0  0  0  0  0  0  0  0
   10.0914   -2.0447   23.3555 C   0  0  0  0  0  0  0  0  0  0  0  0
    9.4452   -1.1080   22.5705 C   0  0  0  0  0  0  0  0  0  0  0  0
    8.1127   -1.5569   22.4435 C   0  0  0  0  0  0  0  0  0  0  0  0
    7.0084   -0.9115   21.6617 C   0  0  0  0  0  0  0  0  0  0  0  0
    6.1243   -1.9331   20.9234 C   0  0  0  0  0  0  0  0  0  0  0  0
    5.9240   -1.3610   19.5258 C   0  0  0  0  0  0  0  0  0  0  0  0
    7.2239   -0.6253   19.2549 C   0  0  0  0  0  0  0  0  0  0  0  0
    7.5114    0.0644   20.5826 C   0  0  0  0  0  0  0  0  0  0  0  0
    7.9208   -2.6925   23.1236 N   0  0  0  0  0  0  0  0  0  0  0  0
    9.1174   -2.9639   23.6724 N   0  0  0  0  0  0  0  0  0  0  0  0
    9.2555   -4.1551   24.4793 C   0  0  0  0  0  0  0  0  0  0  0  0
   11.8585    6.4970   24.2190 C   0  0  0  0  0  0  0  0  0  0  0  0
  1  2  1  0
  2  3  1  0
  3  4  2  0
  4  5  1  0
  5  6  2  0
  6  7  1  0
  7  8  1  0
  6  9  1  0
  9 10  1  0
 10 11  2  0
 10 12  2  0
 10 13  1  0
 13 14  1  0
 15 14  1  6
 15 16  1  0
 17 16  1  6
 17 18  1  0
 18 19  1  0
 19 20  1  0
 20 21  1  0
 21 22  1  0
 22 23  1  6
 23 24  2  0
 24 25  1  0
 25 26  1  0
 26 27  1  0
 27 28  1  0
 28 29  1  0
 29 30  1  0
 25 31  2  0
 31 32  1  0
 32 33  1  0
  9 34  2  0
 34  3  1  0
 20 15  1  0
 32 23  1  0
 22 17  1  0
 30 26  1  0
M  END
