
     RDKit          3D

 29 31  0  0  0  0  0  0  0  0999 V2000
   -2.0168    3.3074   25.3183 C   0  0  0  0  0  0  0  0  0  0  0  0
   -1.2321    4.2667   26.0271 O   0  0  0  0  0  0  0  0  0  0  0  0
    0.0584    4.3328   25.6161 C   0  0  0  0  0  0  0  0  0  0  0  0
    0.5539    3.7228   24.6813 O   0  0  0  0  0  0  0  0  0  0  0  0
    0.7907    5.3469   26.4016 C   0  0  0  0  0  0  0  0  0  0  0  0
    2.0947    5.6354   26.2175 C   0  0  0  0  0  0  0  0  0  0  0  0
    2.9328    4.9876   25.1336 C   0  0  0  0  0  0  0  0  0  0  0  0
    2.7088    6.6082   27.0374 N   0  0  0  0  0  0  0  0  0  0  0  0
    4.1223    6.8348   26.9433 C   0  0  0  0  0  0  0  0  0  0  0  0
    4.5901    7.7926   26.0284 C   0  0  0  0  0  0  0  0  0  0  0  0
    5.9613    8.0215   25.8733 C   0  0  0  0  0  0  0  0  0  0  0  0
    6.4530    9.0724   24.9233 C   0  0  0  0  0  0  0  0  0  0  0  0
    6.8610    7.2991   26.6625 C   0  0  0  0  0  0  0  0  0  0  0  0
    6.4009    6.3490   27.5790 C   0  0  0  0  0  0  0  0  0  0  0  0
    5.0292    6.1024   27.7330 C   0  0  0  0  0  0  0  0  0  0  0  0
    4.5672    5.1043   28.7566 C   0  0  0  0  0  0  0  0  0  0  0  0
    1.9574    7.4104   27.9191 C   0  0  0  0  0  0  0  0  0  0  0  0
    2.5115    8.6238   28.9426 S   0  0  0  0  0  0  0  0  0  0  0  0
    0.6087    7.1893   27.9491 N   0  0  0  0  0  0  0  0  0  0  0  0
   -0.0681    6.0311   27.4088 C   0  0  2  0  0  0  0  0  0  0  0  0
   -0.5277    5.1067   28.5294 C   0  0  0  0  0  0  0  0  0  0  0  0
    0.2921    4.0751   29.0182 C   0  0  0  0  0  0  0  0  0  0  0  0
   -0.1566    3.2230   30.0318 C   0  0  0  0  0  0  0  0  0  0  0  0
   -1.4375    3.3851   30.5691 C   0  0  0  0  0  0  0  0  0  0  0  0
   -1.9593    2.5055   31.6428 C   0  0  0  0  0  0  0  0  0  0  0  0
   -1.3613    1.5796   32.1591 O   0  0  0  0  0  0  0  0  0  0  0  0
   -3.2086    2.8276   32.0218 O   0  0  0  0  0  0  0  0  0  0  0  0
   -2.2653    4.4036   30.0846 C   0  0  0  0  0  0  0  0  0  0  0  0
   -1.8148    5.2557   29.0723 C   0  0  0  0  0  0  0  0  0  0  0  0
  1  2  1  0
  2  3  1  0
  3  4  2  0
  3  5  1  0
  5  6  2  0
  6  7  1  0
  6  8  1  0
  8  9  1  0
  9 10  2  0
 10 11  1  0
 11 12  1  0
 11 13  2  0
 13 14  1  0
 14 15  2  0
 15 16  1  0
  8 17  1  0
 17 18  2  0
 17 19  1  0
 19 20  1  0
 20 21  1  1
 21 22  2  0
 22 23  1  0
 23 24  2  0
 24 25  1  0
 25 26  2  0
 25 27  1  0
 24 28  1  0
 28 29  2  0
 20  5  1  0
 29 21  1  0
 15  9  1  0
M  END
