
     RDKit          3D

 22 23  0  0  0  0  0  0  0  0999 V2000
    7.6110    5.3755   25.5449 C   0  0  0  0  0  0  0  0  0  0  0  0
    7.2236    6.6837   25.9428 O   0  0  0  0  0  0  0  0  0  0  0  0
    7.3299    6.9997   27.2722 C   0  0  0  0  0  0  0  0  0  0  0  0
    8.3824    7.7147   27.8395 C   0  0  0  0  0  0  0  0  0  0  0  0
    8.3683    7.9860   29.2135 C   0  0  0  0  0  0  0  0  0  0  0  0
    9.4771    8.7739   29.8098 C   0  0  0  0  0  0  0  0  0  0  0  0
   10.1134    8.2432   31.2799 S   0  0  0  0  0  0  0  0  0  0  0  0
    9.8935    9.9213   29.1057 N   0  0  0  0  0  0  0  0  0  0  0  0
   10.9880   10.7807   29.6054 C   0  0  0  0  0  0  0  0  0  0  0  0
   10.8658   12.2299   29.1038 C   0  0  1  0  0  0  0  0  0  0  0  0
   12.0881   13.0480   29.4963 C   0  0  0  0  0  0  0  0  0  0  0  0
   10.7574   12.2672   27.6720 O   0  0  0  0  0  0  0  0  0  0  0  0
    9.5831   11.5633   27.2400 C   0  0  1  0  0  0  0  0  0  0  0  0
    9.4912   11.7004   25.7269 C   0  0  0  0  0  0  0  0  0  0  0  0
    9.6522   10.0842   27.6560 C   0  0  0  0  0  0  0  0  0  0  0  0
    7.3235    7.5521   30.0398 C   0  0  0  0  0  0  0  0  0  0  0  0
    6.2650    6.8358   29.4859 C   0  0  0  0  0  0  0  0  0  0  0  0
    5.1827    6.3696   30.1858 O   0  0  0  0  0  0  0  0  0  0  0  0
    4.2648    7.3288   30.6926 C   0  0  0  0  0  0  0  0  0  0  0  0
    6.2834    6.5562   28.1051 C   0  0  0  0  0  0  0  0  0  0  0  0
    5.2133    5.8939   27.5415 O   0  0  0  0  0  0  0  0  0  0  0  0
    4.3786    6.8234   26.8523 C   0  0  0  0  0  0  0  0  0  0  0  0
  1  2  1  0
  2  3  1  0
  3  4  2  0
  4  5  1  0
  5  6  1  0
  6  7  2  0
  6  8  1  0
  8  9  1  0
  9 10  1  0
 10 11  1  6
 10 12  1  0
 12 13  1  0
 13 14  1  6
 13 15  1  0
  5 16  2  0
 16 17  1  0
 17 18  1  0
 18 19  1  0
 17 20  2  0
 20 21  1  0
 21 22  1  0
 20  3  1  0
 15  8  1  0
M  END
