
     RDKit          3D

 34 36  0  0  0  0  0  0  0  0999 V2000
    4.2032    2.6691   21.3240 C   0  0  0  0  0  0  0  0  0  0  0  0
    3.3799    2.0740   20.1733 C   0  0  2  0  0  0  0  0  0  0  0  0
    4.1223    2.0212   18.9097 N   0  0  0  0  0  0  0  0  0  0  0  0
    4.5036    0.6665   18.5002 C   0  0  0  0  0  0  0  0  0  0  0  0
    5.9651    0.3637   18.8778 C   0  0  2  0  0  0  0  0  0  0  0  0
    6.8200    0.7514   17.7868 O   0  0  0  0  0  0  0  0  0  0  0  0
    6.1980   -1.1126   19.2231 C   0  0  0  0  0  0  0  0  0  0  0  0
    5.7371   -1.3373   20.5695 O   0  0  0  0  0  0  0  0  0  0  0  0
    6.5439   -2.1648   21.2989 C   0  0  0  0  0  0  0  0  0  0  0  0
    7.4929   -1.5612   22.1194 C   0  0  0  0  0  0  0  0  0  0  0  0
    8.3269   -2.3491   22.9136 C   0  0  0  0  0  0  0  0  0  0  0  0
    8.1875   -3.7383   22.9229 C   0  0  0  0  0  0  0  0  0  0  0  0
    9.0682   -4.4089   23.7236 O   0  0  0  0  0  0  0  0  0  0  0  0
    8.7225   -4.5151   25.1152 C   0  0  0  0  0  0  0  0  0  0  0  0
    9.9957   -4.3660   25.9592 C   0  0  1  0  0  0  0  0  0  0  0  0
   10.8517   -5.5047   25.7574 O   0  0  0  0  0  0  0  0  0  0  0  0
   10.7821   -3.0847   25.6239 C   0  0  0  0  0  0  0  0  0  0  0  0
   12.2049   -3.3782   25.4301 N   0  0  0  0  0  0  0  0  0  0  0  0
   13.1042   -2.3684   25.9954 C   0  0  1  0  0  0  0  0  0  0  0  0
   14.5284   -2.8981   26.2082 C   0  0  0  0  0  0  0  0  0  0  0  0
   13.1054   -1.1396   25.0948 C   0  0  0  0  0  0  0  0  0  0  0  0
   12.1378   -0.1284   25.2212 C   0  0  0  0  0  0  0  0  0  0  0  0
   12.1654    0.9948   24.3914 C   0  0  0  0  0  0  0  0  0  0  0  0
   13.1612    1.1262   23.4269 C   0  0  0  0  0  0  0  0  0  0  0  0
   14.1335    0.1377   23.2936 C   0  0  0  0  0  0  0  0  0  0  0  0
   14.1081   -0.9857   24.1234 C   0  0  0  0  0  0  0  0  0  0  0  0
    7.2275   -4.3394   22.1078 C   0  0  0  0  0  0  0  0  0  0  0  0
    6.3981   -3.5510   21.3017 C   0  0  0  0  0  0  0  0  0  0  0  0
    2.0914    2.8613   19.9680 C   0  0  0  0  0  0  0  0  0  0  0  0
    0.8558    2.2783   20.2923 C   0  0  0  0  0  0  0  0  0  0  0  0
   -0.3366    2.9834   20.1122 C   0  0  0  0  0  0  0  0  0  0  0  0
   -0.3120    4.2787   19.6001 C   0  0  0  0  0  0  0  0  0  0  0  0
    0.9037    4.8689   19.2639 C   0  0  0  0  0  0  0  0  0  0  0  0
    2.0969    4.1652   19.4430 C   0  0  0  0  0  0  0  0  0  0  0  0
  2  1  1  1
  2  3  1  0
  3  4  1  0
  4  5  1  0
  5  6  1  6
  5  7  1  0
  7  8  1  0
  8  9  1  0
  9 10  2  0
 10 11  1  0
 11 12  2  0
 12 13  1  0
 13 14  1  0
 14 15  1  0
 15 16  1  6
 15 17  1  0
 17 18  1  0
 18 19  1  0
 19 20  1  6
 19 21  1  0
 21 22  2  0
 22 23  1  0
 23 24  2  0
 24 25  1  0
 25 26  2  0
 12 27  1  0
 27 28  2  0
  2 29  1  0
 29 30  2  0
 30 31  1  0
 31 32  2  0
 32 33  1  0
 33 34  2  0
 28  9  1  0
 34 29  1  0
 26 21  1  0
M  END
