
     RDKit          3D

 29 32  0  0  0  0  0  0  0  0999 V2000
    8.1596    0.2087   26.2318 C   0  0  0  0  0  0  0  0  0  0  0  0
    8.3299    1.1078   25.1452 O   0  0  0  0  0  0  0  0  0  0  0  0
    7.2159    1.4522   24.4244 C   0  0  0  0  0  0  0  0  0  0  0  0
    5.9616    1.7261   24.9735 C   0  0  0  0  0  0  0  0  0  0  0  0
    4.8852    2.0744   24.1448 C   0  0  0  0  0  0  0  0  0  0  0  0
    3.5625    2.3612   24.7122 C   0  0  0  0  0  0  0  0  0  0  0  0
    3.0453    3.5819   24.9119 C   0  0  0  0  0  0  0  0  0  0  0  0
    3.8001    5.1244   24.5538 S   0  0  0  0  0  0  0  0  0  0  0  0
    2.4022    5.9317   25.1305 C   0  0  0  0  0  0  0  0  0  0  0  0
    2.0325    7.1719   25.2583 N   0  0  0  0  0  0  0  0  0  0  0  0
    0.7675    7.0402   25.8191 C   0  0  0  0  0  0  0  0  0  0  0  0
   -0.0757    8.1885   26.1321 C   0  0  0  0  0  0  0  0  0  0  0  0
   -0.4806    8.3713   27.4683 C   0  0  0  0  0  0  0  0  0  0  0  0
   -1.3060    9.4371   27.8335 C   0  0  0  0  0  0  0  0  0  0  0  0
   -1.7367   10.3416   26.8688 C   0  0  0  0  0  0  0  0  0  0  0  0
   -1.3349   10.1855   25.5424 C   0  0  0  0  0  0  0  0  0  0  0  0
   -0.5048    9.1176   25.1707 C   0  0  0  0  0  0  0  0  0  0  0  0
    0.0345    9.0664   23.3459 Br  0  0  0  0  0  0  0  0  0  0  0  0
    0.3591    5.7607   25.9852 N   0  0  0  0  0  0  0  0  0  0  0  0
    1.4402    5.0904   25.5527 N   0  0  0  0  0  0  0  0  0  0  0  0
    1.6705    3.7340   25.4804 C   0  0  0  0  0  0  0  0  0  0  0  0
    0.8725    2.8808   25.8233 O   0  0  0  0  0  0  0  0  0  0  0  0
    5.0563    2.1289   22.7547 C   0  0  0  0  0  0  0  0  0  0  0  0
    6.3013    1.8543   22.1851 C   0  0  0  0  0  0  0  0  0  0  0  0
    6.5722    1.8852   20.8416 O   0  0  0  0  0  0  0  0  0  0  0  0
    5.5551    1.4377   19.9564 C   0  0  0  0  0  0  0  0  0  0  0  0
    7.3786    1.5372   23.0307 C   0  0  0  0  0  0  0  0  0  0  0  0
    8.6006    1.2255   22.4746 O   0  0  0  0  0  0  0  0  0  0  0  0
    9.5699    2.1970   22.8640 C   0  0  0  0  0  0  0  0  0  0  0  0
  1  2  1  0
  2  3  1  0
  3  4  2  0
  4  5  1  0
  5  6  1  0
  6  7  2  0
  7  8  1  0
  8  9  1  0
  9 10  2  0
 10 11  1  0
 11 12  1  0
 12 13  2  0
 13 14  1  0
 14 15  2  0
 15 16  1  0
 16 17  2  0
 17 18  1  0
 11 19  2  0
 19 20  1  0
 20 21  1  0
 21 22  2  0
  5 23  2  0
 23 24  1  0
 24 25  1  0
 25 26  1  0
 24 27  2  0
 27 28  1  0
 28 29  1  0
 27  3  1  0
 21  7  1  0
 20  9  1  0
 17 12  1  0
M  END
