
     RDKit          3D

 34 37  0  0  0  0  0  0  0  0999 V2000
    7.6035    1.7646   21.7983 C   0  0  0  0  0  0  0  0  0  0  0  0
    8.7277    2.6230   21.9317 O   0  0  0  0  0  0  0  0  0  0  0  0
    8.5590    3.7664   22.6693 C   0  0  0  0  0  0  0  0  0  0  0  0
    7.7023    4.8129   22.3294 C   0  0  0  0  0  0  0  0  0  0  0  0
    7.6094    5.9398   23.1574 C   0  0  0  0  0  0  0  0  0  0  0  0
    6.6399    6.9943   22.7859 C   0  0  0  0  0  0  0  0  0  0  0  0
    5.7336    7.2560   23.5770 O   0  0  0  0  0  0  0  0  0  0  0  0
    6.7229    7.6904   21.6080 N   0  0  0  0  0  0  0  0  0  0  0  0
    5.8806    8.6752   21.1796 C   0  0  0  0  0  0  0  0  0  0  0  0
    5.1067    8.7372   20.1261 N   0  0  0  0  0  0  0  0  0  0  0  0
    4.4125    9.9284   20.0650 N   0  0  0  0  0  0  0  0  0  0  0  0
    4.6753   10.7177   21.0884 C   0  0  0  0  0  0  0  0  0  0  0  0
    4.0354   12.0691   21.2660 C   0  0  2  0  0  0  0  0  0  0  0  0
    2.8175   12.0609   22.1748 C   0  0  0  0  0  0  0  0  0  0  0  0
    1.6547   11.9400   21.2171 C   0  0  0  0  0  0  0  0  0  0  0  0
    0.5358   11.6216   21.5877 O   0  0  0  0  0  0  0  0  0  0  0  0
    2.1053   12.2919   19.9363 N   0  0  0  0  0  0  0  0  0  0  0  0
    1.3152   12.3834   18.7560 C   0  0  0  0  0  0  0  0  0  0  0  0
   -0.0561   12.1179   18.7642 C   0  0  0  0  0  0  0  0  0  0  0  0
   -0.8177   12.1960   17.5929 C   0  0  0  0  0  0  0  0  0  0  0  0
   -0.2306   12.5429   16.3712 C   0  0  0  0  0  0  0  0  0  0  0  0
   -1.0849   12.6204   15.1371 C   0  0  0  0  0  0  0  0  0  0  0  0
    1.1443   12.8279   16.3388 C   0  0  0  0  0  0  0  0  0  0  0  0
    1.8326   13.2102   15.0567 C   0  0  0  0  0  0  0  0  0  0  0  0
    1.8964   12.7425   17.5274 C   0  0  0  0  0  0  0  0  0  0  0  0
    3.5082   12.6487   19.9631 C   0  0  0  0  0  0  0  0  0  0  0  0
    5.8072   10.0393   22.1997 S   0  0  0  0  0  0  0  0  0  0  0  0
    8.3340    6.0139   24.3531 C   0  0  0  0  0  0  0  0  0  0  0  0
    9.2175    4.9891   24.6933 C   0  0  0  0  0  0  0  0  0  0  0  0
    9.9893    4.9707   25.8260 O   0  0  0  0  0  0  0  0  0  0  0  0
    9.3055    4.9182   27.0711 C   0  0  0  0  0  0  0  0  0  0  0  0
    9.3293    3.8755   23.8411 C   0  0  0  0  0  0  0  0  0  0  0  0
   10.1559    2.8337   24.2040 O   0  0  0  0  0  0  0  0  0  0  0  0
   11.4462    3.0195   23.6244 C   0  0  0  0  0  0  0  0  0  0  0  0
  1  2  1  0
  2  3  1  0
  3  4  2  0
  4  5  1  0
  5  6  1  0
  6  7  2  0
  6  8  1  0
  8  9  1  0
  9 10  2  0
 10 11  1  0
 11 12  2  0
 13 12  1  6
 13 14  1  0
 14 15  1  0
 15 16  2  0
 15 17  1  0
 17 18  1  0
 18 19  2  0
 19 20  1  0
 20 21  2  0
 21 22  1  0
 21 23  1  0
 23 24  1  0
 23 25  2  0
 17 26  1  0
 12 27  1  0
  5 28  2  0
 28 29  1  0
 29 30  1  0
 30 31  1  0
 29 32  2  0
 32 33  1  0
 33 34  1  0
 32  3  1  0
 27  9  1  0
 26 13  1  0
 25 18  1  0
M  END
