
     RDKit          3D

 35 38  0  0  0  0  0  0  0  0999 V2000
    4.6508    9.4458   20.2183 C   0  0  0  0  0  0  0  0  0  0  0  0
    5.1061    8.1348   20.6909 N   0  0  0  0  0  0  0  0  0  0  0  0
    4.1097    7.5701   21.6058 C   0  0  0  0  0  0  0  0  0  0  0  0
    6.4159    8.2164   21.3609 C   0  0  0  0  0  0  0  0  0  0  0  0
    6.9342    6.8533   21.8358 C   0  0  0  0  0  0  0  0  0  0  0  0
    8.3369    6.9880   22.4258 C   0  0  0  0  0  0  0  0  0  0  0  0
    8.7957    5.7487   23.0217 N   0  0  0  0  0  0  0  0  0  0  0  0
   10.1376    5.4420   23.1161 C   0  0  0  0  0  0  0  0  0  0  0  0
   11.0207    6.2004   22.7255 O   0  0  0  0  0  0  0  0  0  0  0  0
   10.4229    4.0944   23.7733 C   0  0  1  0  0  0  0  0  0  0  0  0
    9.2536    3.1201   23.5894 C   0  0  0  0  0  0  0  0  0  0  0  0
    9.6121    1.7441   24.1634 C   0  0  1  0  0  0  0  0  0  0  0  0
    8.4930    0.7253   23.9489 C   0  0  0  0  0  0  0  0  0  0  0  0
    7.4614    0.7556   24.6107 O   0  0  0  0  0  0  0  0  0  0  0  0
    8.8009   -0.1835   22.9480 N   0  0  0  0  0  0  0  0  0  0  0  0
    8.0147   -1.2571   22.4784 C   0  0  0  0  0  0  0  0  0  0  0  0
    7.0414   -1.1349   21.4734 C   0  0  0  0  0  0  0  0  0  0  0  0
    6.2868   -2.2402   21.0592 C   0  0  0  0  0  0  0  0  0  0  0  0
    6.5278   -3.4658   21.6520 C   0  0  0  0  0  0  0  0  0  0  0  0
    7.4960   -3.6000   22.6483 C   0  0  0  0  0  0  0  0  0  0  0  0
    8.2391   -2.5090   23.0728 C   0  0  0  0  0  0  0  0  0  0  0  0
    7.5387   -5.0035   23.1654 C   0  0  0  0  0  0  0  0  0  0  0  0
    6.8123   -5.7578   22.0420 C   0  0  0  0  0  0  0  0  0  0  0  0
    5.8268   -4.7648   21.4085 C   0  0  0  0  0  0  0  0  0  0  0  0
   10.9125    1.2319   23.5315 C   0  0  0  0  0  0  0  0  0  0  0  0
   12.0192    2.1693   23.7868 N   0  0  0  0  0  0  0  0  0  0  0  0
   13.2762    1.6263   23.2341 C   0  0  0  0  0  0  0  0  0  0  0  0
   13.6600    0.2895   23.8321 C   0  0  0  0  0  0  0  0  0  0  0  0
   13.8598   -0.8319   23.0119 C   0  0  0  0  0  0  0  0  0  0  0  0
   14.2084   -2.0657   23.5678 C   0  0  0  0  0  0  0  0  0  0  0  0
   14.3560   -2.1781   24.9464 C   0  0  0  0  0  0  0  0  0  0  0  0
   14.6933   -3.3635   25.5301 O   0  0  0  0  0  0  0  0  0  0  0  0
   14.1628   -1.0800   25.7756 C   0  0  0  0  0  0  0  0  0  0  0  0
   13.8177    0.1526   25.2201 C   0  0  0  0  0  0  0  0  0  0  0  0
   11.7177    3.4945   23.1998 C   0  0  0  0  0  0  0  0  0  0  0  0
  1  2  1  0
  2  3  1  0
  2  4  1  0
  4  5  1  0
  5  6  1  0
  6  7  1  0
  7  8  1  0
  8  9  2  0
 10  8  1  6
 10 11  1  0
 11 12  1  0
 12 13  1  6
 13 14  2  0
 13 15  1  0
 15 16  1  0
 16 17  2  0
 17 18  1  0
 18 19  2  0
 19 20  1  0
 20 21  2  0
 20 22  1  0
 22 23  1  0
 23 24  1  0
 12 25  1  0
 25 26  1  0
 26 27  1  0
 27 28  1  0
 28 29  2  0
 29 30  1  0
 30 31  2  0
 31 32  1  0
 31 33  1  0
 33 34  2  0
 26 35  1  0
 35 10  1  0
 21 16  1  0
 34 28  1  0
 24 19  1  0
M  END
