
     RDKit          3D

 36 40  0  0  0  0  0  0  0  0999 V2000
    5.1541   -3.4205   20.8845 O   0  0  0  0  0  0  0  0  0  0  0  0
    6.2075   -2.8586   21.1981 C   0  0  0  0  0  0  0  0  0  0  0  0
    6.6079   -1.5031   20.5703 C   0  0  2  0  0  0  0  0  0  0  0  0
    5.8692   -0.3250   21.1992 C   0  0  0  0  0  0  0  0  0  0  0  0
    5.8362    0.6767   20.0741 C   0  0  0  0  0  0  0  0  0  0  0  0
    5.6277   -0.2246   18.8807 C   0  0  0  0  0  0  0  0  0  0  0  0
    6.3584   -1.4262   19.1552 O   0  0  0  0  0  0  0  0  0  0  0  0
    7.0507   -3.3966   22.1624 N   0  0  0  0  0  0  0  0  0  0  0  0
    6.8246   -4.6678   22.8577 C   0  0  0  0  0  0  0  0  0  0  0  0
    8.1285   -5.3017   23.3858 C   0  0  0  0  0  0  0  0  0  0  0  0
    9.0103   -4.4046   24.1502 N   0  0  0  0  0  0  0  0  0  0  0  0
    9.2615   -4.8301   25.5308 C   0  0  0  0  0  0  0  0  0  0  0  0
   10.4504   -4.1766   26.2610 C   0  0  0  0  0  0  0  0  0  0  0  0
   11.6584   -4.3311   25.5104 O   0  0  0  0  0  0  0  0  0  0  0  0
   12.3429   -3.2152   25.1200 C   0  0  0  0  0  0  0  0  0  0  0  0
   11.9069   -2.6656   23.9124 C   0  0  0  0  0  0  0  0  0  0  0  0
   12.5093   -1.5195   23.3877 C   0  0  0  0  0  0  0  0  0  0  0  0
   13.5676   -0.9009   24.0640 C   0  0  0  0  0  0  0  0  0  0  0  0
   14.2258    0.3411   23.4993 C   0  0  0  0  0  0  0  0  0  0  0  0
   13.3548    1.4962   23.2404 N   0  0  0  0  0  0  0  0  0  0  0  0
   12.2778    1.6480   24.2210 C   0  0  0  0  0  0  0  0  0  0  0  0
   11.2814    2.7233   23.7743 C   0  0  0  0  0  0  0  0  0  0  0  0
   11.9910    4.0628   23.5334 C   0  0  0  0  0  0  0  0  0  0  0  0
   11.0356    5.2040   23.1318 C   0  0  0  0  0  0  0  0  0  0  0  0
   10.9097    6.3592   24.0955 C   0  0  0  0  0  0  0  0  0  0  0  0
   11.9976    7.2112   24.3322 C   0  0  0  0  0  0  0  0  0  0  0  0
   11.8832    8.2788   25.2244 C   0  0  0  0  0  0  0  0  0  0  0  0
   10.6808    8.5051   25.8913 C   0  0  0  0  0  0  0  0  0  0  0  0
    9.5938    7.6623   25.6682 C   0  0  0  0  0  0  0  0  0  0  0  0
    9.7078    6.5932   24.7774 C   0  0  0  0  0  0  0  0  0  0  0  0
   13.1489    3.8571   22.5474 C   0  0  0  0  0  0  0  0  0  0  0  0
   14.0882    2.7466   23.0288 C   0  0  0  0  0  0  0  0  0  0  0  0
   13.9976   -1.4534   25.2783 C   0  0  0  0  0  0  0  0  0  0  0  0
   13.3927   -2.6029   25.8015 C   0  0  0  0  0  0  0  0  0  0  0  0
    8.6674   -2.9827   24.0126 C   0  0  0  0  0  0  0  0  0  0  0  0
    8.2224   -2.6257   22.5837 C   0  0  0  0  0  0  0  0  0  0  0  0
  1  2  2  0
  3  2  1  1
  3  4  1  0
  4  5  1  0
  5  6  1  0
  6  7  1  0
  2  8  1  0
  8  9  1  0
  9 10  1  0
 10 11  1  0
 11 12  1  0
 12 13  1  0
 13 14  1  0
 14 15  1  0
 15 16  2  0
 16 17  1  0
 17 18  2  0
 18 19  1  0
 19 20  1  0
 20 21  1  0
 21 22  1  0
 22 23  1  0
 23 24  1  0
 24 25  1  0
 25 26  2  0
 26 27  1  0
 27 28  2  0
 28 29  1  0
 29 30  2  0
 23 31  1  0
 31 32  1  0
 18 33  1  0
 33 34  2  0
 11 35  1  0
 35 36  1  0
  7  3  1  0
 36  8  1  0
 34 15  1  0
 32 20  1  0
 30 25  1  0
M  END
