
     RDKit          3D

 35 39  0  0  0  0  0  0  0  0999 V2000
    5.1968    0.6562   18.3234 C   0  0  0  0  0  0  0  0  0  0  0  0
    5.4432    0.2265   19.7193 C   0  0  0  0  0  0  0  0  0  0  0  0
    5.5169    1.0258   20.8797 C   0  0  0  0  0  0  0  0  0  0  0  0
    5.7503    0.1486   21.9179 C   0  0  0  0  0  0  0  0  0  0  0  0
    5.9080    0.3977   23.3699 C   0  0  0  0  0  0  0  0  0  0  0  0
    5.7981   -1.0939   21.3400 N   0  0  0  0  0  0  0  0  0  0  0  0
    5.9927   -2.3782   21.9883 C   0  0  0  0  0  0  0  0  0  0  0  0
    7.3097   -3.0465   21.5917 C   0  0  0  0  0  0  0  0  0  0  0  0
    8.1650   -3.3339   22.7284 N   0  0  0  0  0  0  0  0  0  0  0  0
    8.0366   -4.4344   23.5165 C   0  0  0  0  0  0  0  0  0  0  0  0
    7.1660   -5.2845   23.5122 O   0  0  0  0  0  0  0  0  0  0  0  0
    9.1641   -4.4101   24.4411 C   0  0  0  0  0  0  0  0  0  0  0  0
    9.4325   -5.3180   25.4481 C   0  0  0  0  0  0  0  0  0  0  0  0
   10.5635   -5.0850   26.2136 C   0  0  0  0  0  0  0  0  0  0  0  0
   11.3775   -3.9687   25.9430 C   0  0  0  0  0  0  0  0  0  0  0  0
   11.1092   -3.0337   24.9083 C   0  0  0  0  0  0  0  0  0  0  0  0
   12.0372   -2.0147   24.7355 N   0  0  0  0  0  0  0  0  0  0  0  0
   13.0546   -2.0708   23.6734 C   0  0  0  0  0  0  0  0  0  0  0  0
   14.2385   -1.1377   24.0370 C   0  0  0  0  0  0  0  0  0  0  0  0
   13.8651    0.2765   24.3064 N   0  0  0  0  0  0  0  0  0  0  0  0
   13.4461    1.0095   23.1002 C   0  0  0  0  0  0  0  0  0  0  0  0
   13.4944    2.5324   23.2816 C   0  0  0  0  0  0  0  0  0  0  0  0
   12.1263    3.1576   22.9934 C   0  0  0  0  0  0  0  0  0  0  0  0
   12.0537    4.5877   23.4670 C   0  0  0  0  0  0  0  0  0  0  0  0
   13.0004    5.5270   23.0366 C   0  0  0  0  0  0  0  0  0  0  0  0
   12.9236    6.8543   23.4613 C   0  0  0  0  0  0  0  0  0  0  0  0
   11.8985    7.2557   24.3157 C   0  0  0  0  0  0  0  0  0  0  0  0
   10.9477    6.3309   24.7439 C   0  0  0  0  0  0  0  0  0  0  0  0
   11.0226    5.0030   24.3200 C   0  0  0  0  0  0  0  0  0  0  0  0
   12.7866    0.2779   25.3272 C   0  0  0  0  0  0  0  0  0  0  0  0
   11.5751   -0.6426   25.0285 C   0  0  0  0  0  0  0  0  0  0  0  0
    9.9593   -3.2946   24.1634 C   0  0  0  0  0  0  0  0  0  0  0  0
    9.2688   -2.5921   23.0580 C   0  0  0  0  0  0  0  0  0  0  0  0
    9.5798   -1.5359   22.5387 O   0  0  0  0  0  0  0  0  0  0  0  0
    5.6276   -1.0667   20.0022 N   0  0  0  0  0  0  0  0  0  0  0  0
  1  2  1  0
  2  3  1  0
  3  4  2  0
  4  5  1  0
  4  6  1  0
  6  7  1  0
  7  8  1  0
  8  9  1  0
  9 10  1  0
 10 11  2  0
 10 12  1  0
 12 13  2  0
 13 14  1  0
 14 15  2  0
 15 16  1  0
 16 17  1  0
 17 18  1  0
 18 19  1  0
 19 20  1  0
 20 21  1  0
 21 22  1  0
 22 23  1  0
 23 24  1  0
 24 25  2  0
 25 26  1  0
 26 27  2  0
 27 28  1  0
 28 29  2  0
 20 30  1  0
 30 31  1  0
 16 32  2  0
 32 33  1  0
 33 34  2  0
  6 35  1  0
 35  2  2  0
 33  9  1  0
 32 12  1  0
 31 17  1  0
 29 24  1  0
M  END
