
     RDKit          3D

 36 40  0  0  0  0  0  0  0  0999 V2000
    7.1976    0.6484   25.5691 C   0  0  0  0  0  0  0  0  0  0  0  0
    8.1492   -0.0601   24.7840 O   0  0  0  0  0  0  0  0  0  0  0  0
    7.9352   -0.1233   23.4290 C   0  0  0  0  0  0  0  0  0  0  0  0
    6.9541    0.6292   22.7574 C   0  0  0  0  0  0  0  0  0  0  0  0
    6.8143    0.5003   21.3601 C   0  0  0  0  0  0  0  0  0  0  0  0
    7.6616   -0.3695   20.6910 C   0  0  0  0  0  0  0  0  0  0  0  0
    8.6437   -1.1315   21.3133 C   0  0  0  0  0  0  0  0  0  0  0  0
    8.7722   -1.0075   22.7136 C   0  0  0  0  0  0  0  0  0  0  0  0
    9.8623   -1.8092   23.4077 C   0  0  0  0  0  0  0  0  0  0  0  0
   11.2267   -1.3114   23.1253 N   0  0  0  0  0  0  0  0  0  0  0  0
   12.2199   -1.9791   23.9818 C   0  0  0  0  0  0  0  0  0  0  0  0
   13.6347   -1.4943   23.6547 C   0  0  0  0  0  0  0  0  0  0  0  0
   13.7565    0.0197   23.7971 C   0  0  0  0  0  0  0  0  0  0  0  0
   12.6664    0.7257   22.9803 C   0  0  2  0  0  0  0  0  0  0  0  0
   12.6850    2.1696   23.1553 N   0  0  0  0  0  0  0  0  0  0  0  0
   11.6518    3.0542   23.0644 C   0  0  0  0  0  0  0  0  0  0  0  0
   12.2397    4.2851   23.2710 C   0  0  0  0  0  0  0  0  0  0  0  0
   11.5917    5.5876   23.2802 C   0  0  0  0  0  0  0  0  0  0  0  0
   12.2145    6.6419   23.3723 O   0  0  0  0  0  0  0  0  0  0  0  0
   10.2192    5.5235   23.1644 N   0  0  0  0  0  0  0  0  0  0  0  0
    9.4015    6.7187   23.1544 C   0  0  0  0  0  0  0  0  0  0  0  0
    8.1024    6.5145   22.3733 C   0  0  0  0  0  0  0  0  0  0  0  0
    7.3290    7.7149   22.3605 O   0  0  0  0  0  0  0  0  0  0  0  0
   13.5885    4.1032   23.4730 N   0  0  0  0  0  0  0  0  0  0  0  0
   13.8478    2.8047   23.3971 N   0  0  0  0  0  0  0  0  0  0  0  0
   11.2759    0.1529   23.3051 C   0  0  0  0  0  0  0  0  0  0  0  0
    7.3937   -0.3640   19.3577 O   0  0  0  0  0  0  0  0  0  0  0  0
    6.3652    0.5093   19.1552 C   0  0  0  0  0  0  0  0  0  0  0  0
    5.9027    0.6439   17.7571 C   0  0  0  0  0  0  0  0  0  0  0  0
    5.9778    1.0774   20.3573 C   0  0  0  0  0  0  0  0  0  0  0  0
    4.9046    2.0419   20.4923 C   0  0  0  0  0  0  0  0  0  0  0  0
    3.6053    1.7026   20.0955 C   0  0  0  0  0  0  0  0  0  0  0  0
    2.5658    2.6253   20.2308 C   0  0  0  0  0  0  0  0  0  0  0  0
    2.8189    3.8879   20.7659 C   0  0  0  0  0  0  0  0  0  0  0  0
    4.1100    4.2307   21.1669 C   0  0  0  0  0  0  0  0  0  0  0  0
    5.1516    3.3104   21.0319 C   0  0  0  0  0  0  0  0  0  0  0  0
  1  2  1  0
  2  3  1  0
  3  4  2  0
  4  5  1  0
  5  6  2  0
  6  7  1  0
  7  8  2  0
  8  9  1  0
  9 10  1  0
 10 11  1  0
 11 12  1  0
 12 13  1  0
 13 14  1  0
 14 15  1  1
 15 16  1  0
 16 17  2  0
 17 18  1  0
 18 19  2  0
 18 20  1  0
 20 21  1  0
 21 22  1  0
 22 23  1  0
 17 24  1  0
 24 25  2  0
 14 26  1  0
  6 27  1  0
 27 28  1  0
 28 29  1  0
 28 30  2  0
 30 31  1  0
 31 32  2  0
 32 33  1  0
 33 34  2  0
 34 35  1  0
 35 36  2  0
  8  3  1  0
 26 10  1  0
 36 31  1  0
 30  5  1  0
 25 15  1  0
M  END
