
     RDKit          3D

 33 34  0  0  0  0  0  0  0  0999 V2000
    4.7698    0.9729   19.3299 C   0  0  0  0  0  0  0  0  0  0  0  0
    6.0886    0.2813   19.0212 C   0  0  0  0  0  0  0  0  0  0  0  0
    6.0847   -1.2140   19.3497 C   0  0  0  0  0  0  0  0  0  0  0  0
    5.8522   -1.5049   20.8353 C   0  0  0  0  0  0  0  0  0  0  0  0
    7.0128   -1.0402   21.6821 C   0  0  0  0  0  0  0  0  0  0  0  0
    6.8825    0.0810   22.5127 C   0  0  0  0  0  0  0  0  0  0  0  0
    7.9520    0.5044   23.3073 C   0  0  0  0  0  0  0  0  0  0  0  0
    9.1629   -0.1989   23.2867 C   0  0  0  0  0  0  0  0  0  0  0  0
   10.3313    0.2174   24.1101 C   0  0  0  0  0  0  0  0  0  0  0  0
   10.2120    1.0586   24.9942 O   0  0  0  0  0  0  0  0  0  0  0  0
   11.5447   -0.3657   23.8001 N   0  0  0  0  0  0  0  0  0  0  0  0
   12.7310   -0.0016   24.5689 C   0  0  1  0  0  0  0  0  0  0  0  0
   13.7509   -1.1483   24.6063 C   0  0  0  0  0  0  0  0  0  0  0  0
   13.5428   -2.1572   25.7536 C   0  0  0  0  0  0  0  0  0  0  0  0
   12.2692   -2.9696   25.5022 C   0  0  0  0  0  0  0  0  0  0  0  0
   14.7303   -3.1063   25.9215 C   0  0  0  0  0  0  0  0  0  0  0  0
   13.3868    1.2207   23.8976 C   0  0  0  0  0  0  0  0  0  0  0  0
   14.4044    1.1157   23.2213 O   0  0  0  0  0  0  0  0  0  0  0  0
   12.7553    2.4468   24.1511 N   0  0  0  0  0  0  0  0  0  0  0  0
   13.2420    3.9178   23.5607 S   0  0  0  0  0  0  0  0  0  0  0  0
   14.1448    4.5491   24.4964 O   0  0  0  0  0  0  0  0  0  0  0  0
   13.6502    3.6613   22.1930 O   0  0  0  0  0  0  0  0  0  0  0  0
   11.7251    4.8387   23.4908 C   0  0  0  0  0  0  0  0  0  0  0  0
   10.5373    4.1939   23.1376 C   0  0  0  0  0  0  0  0  0  0  0  0
    9.3471    4.9217   23.0873 C   0  0  0  0  0  0  0  0  0  0  0  0
    9.3335    6.2889   23.4039 C   0  0  0  0  0  0  0  0  0  0  0  0
    8.0406    7.0717   23.3527 C   0  0  0  0  0  0  0  0  0  0  0  0
    7.5729    7.3991   21.9275 C   0  0  0  0  0  0  0  0  0  0  0  0
    6.8522    6.2907   21.3028 N   0  0  0  0  0  0  0  0  0  0  0  0
   10.5294    6.9162   23.7853 C   0  0  0  0  0  0  0  0  0  0  0  0
   11.7244    6.1948   23.8314 C   0  0  0  0  0  0  0  0  0  0  0  0
    9.2997   -1.3133   22.4521 C   0  0  0  0  0  0  0  0  0  0  0  0
    8.2290   -1.7352   21.6599 C   0  0  0  0  0  0  0  0  0  0  0  0
  1  2  1  0
  2  3  1  0
  3  4  1  0
  4  5  1  0
  5  6  2  0
  6  7  1  0
  7  8  2  0
  8  9  1  0
  9 10  2  0
  9 11  1  0
 11 12  1  0
 12 13  1  6
 13 14  1  0
 14 15  1  0
 14 16  1  0
 12 17  1  0
 17 18  2  0
 17 19  1  0
 19 20  1  0
 20 21  2  0
 20 22  2  0
 20 23  1  0
 23 24  2  0
 24 25  1  0
 25 26  2  0
 26 27  1  0
 27 28  1  0
 28 29  1  0
 26 30  1  0
 30 31  2  0
  8 32  1  0
 32 33  2  0
 33  5  1  0
 31 23  1  0
M  END
