
     RDKit          3D

 32 34  0  0  0  0  0  0  0  0999 V2000
    6.5542    0.2280   18.2404 C   0  0  0  0  0  0  0  0  0  0  0  0
    6.0403    1.0458   19.2833 O   0  0  0  0  0  0  0  0  0  0  0  0
    6.0825    0.5434   20.5594 C   0  0  0  0  0  0  0  0  0  0  0  0
    6.0105   -0.8151   20.8858 C   0  0  0  0  0  0  0  0  0  0  0  0
    6.0584   -1.2335   22.2197 C   0  0  0  0  0  0  0  0  0  0  0  0
    5.9931   -2.5872   22.6214 N   0  0  0  0  0  0  0  0  0  0  0  0
    6.9816   -3.5512   22.5166 C   0  0  0  0  0  0  0  0  0  0  0  0
    8.1046   -3.4057   22.0483 O   0  0  0  0  0  0  0  0  0  0  0  0
    6.5196   -4.8852   23.0626 C   0  0  0  0  0  0  0  0  0  0  0  0
    7.5714   -5.4962   23.9756 C   0  0  0  0  0  0  0  0  0  0  0  0
    7.4378   -4.8202   25.6117 S   0  0  0  0  0  0  0  0  0  0  0  0
    6.2305   -4.0245   25.7044 O   0  0  0  0  0  0  0  0  0  0  0  0
    7.6413   -5.9231   26.5351 O   0  0  0  0  0  0  0  0  0  0  0  0
    8.8293   -3.7298   25.7784 C   0  0  0  0  0  0  0  0  0  0  0  0
    8.5858   -2.4186   26.2170 C   0  0  0  0  0  0  0  0  0  0  0  0
    9.6381   -1.5131   26.3414 C   0  0  0  0  0  0  0  0  0  0  0  0
   10.9368   -1.9133   26.0328 C   0  0  0  0  0  0  0  0  0  0  0  0
   11.1856   -3.2145   25.5963 C   0  0  0  0  0  0  0  0  0  0  0  0
   10.1311   -4.1285   25.4609 C   0  0  0  0  0  0  0  0  0  0  0  0
   10.5580   -5.7094   24.9181 Cl  0  0  0  0  0  0  0  0  0  0  0  0
   11.9983   -1.0231   26.1794 N   0  0  0  0  0  0  0  0  0  0  0  0
   11.8018    0.2762   26.5547 C   0  0  0  0  0  0  0  0  0  0  0  0
   12.7469    1.0459   26.7062 O   0  0  0  0  0  0  0  0  0  0  0  0
   10.3423    0.7015   26.7106 C   0  0  0  0  0  0  0  0  0  0  0  0
    9.3136   -0.2723   26.8083 O   0  0  0  0  0  0  0  0  0  0  0  0
    6.1772   -0.2754   23.2391 C   0  0  0  0  0  0  0  0  0  0  0  0
    6.2503    1.0872   22.9372 C   0  0  0  0  0  0  0  0  0  0  0  0
    6.3715    2.0900   23.8643 O   0  0  0  0  0  0  0  0  0  0  0  0
    7.5311    2.9079   23.7999 C   0  0  0  0  0  0  0  0  0  0  0  0
    6.2227    1.4843   21.5917 C   0  0  0  0  0  0  0  0  0  0  0  0
    6.2533    2.8276   21.2868 O   0  0  0  0  0  0  0  0  0  0  0  0
    5.1549    3.1552   20.4376 C   0  0  0  0  0  0  0  0  0  0  0  0
  1  2  1  0
  2  3  1  0
  3  4  2  0
  4  5  1  0
  5  6  1  0
  6  7  1  0
  7  8  2  0
  7  9  1  0
  9 10  1  0
 10 11  1  0
 11 12  2  0
 11 13  2  0
 11 14  1  0
 14 15  2  0
 15 16  1  0
 16 17  2  0
 17 18  1  0
 18 19  2  0
 19 20  1  0
 17 21  1  0
 21 22  1  0
 22 23  2  0
 22 24  1  0
 24 25  1  0
  5 26  2  0
 26 27  1  0
 27 28  1  0
 28 29  1  0
 27 30  2  0
 30 31  1  0
 31 32  1  0
 30  3  1  0
 19 14  1  0
 25 16  1  0
M  END
