
     RDKit          3D

 24 26  0  0  0  0  0  0  0  0999 V2000
    6.5442    5.9726   21.9692 C   0  0  0  0  0  0  0  0  0  0  0  0
    7.9525    5.9849   22.4225 C   0  0  0  0  0  0  0  0  0  0  0  0
    8.6605    4.9660   23.0962 C   0  0  0  0  0  0  0  0  0  0  0  0
    9.9174    5.4881   23.2745 C   0  0  0  0  0  0  0  0  0  0  0  0
   11.1601    4.9884   23.9093 C   0  0  0  0  0  0  0  0  0  0  0  0
   11.7224    3.7692   23.1788 C   0  0  2  0  0  0  0  0  0  0  0  0
   11.5116    2.4627   23.9617 C   0  0  0  0  0  0  0  0  0  0  0  0
   12.8198    1.7841   23.9770 N   0  0  0  0  0  0  0  0  0  0  0  0
   12.6877    0.3255   23.9835 C   0  0  0  0  0  0  0  0  0  0  0  0
   14.0024   -0.4209   23.7348 C   0  0  0  0  0  0  0  0  0  0  0  0
   14.1052   -1.7268   24.5200 C   0  0  0  0  0  0  0  0  0  0  0  0
   12.9575   -2.5597   24.3415 O   0  0  0  0  0  0  0  0  0  0  0  0
   12.2997   -2.9313   25.5536 C   0  0  0  0  0  0  0  0  0  0  0  0
   11.0874   -3.7927   25.2934 C   0  0  0  0  0  0  0  0  0  0  0  0
   10.8176   -4.9172   26.0868 C   0  0  0  0  0  0  0  0  0  0  0  0
    9.6804   -5.6931   25.8576 C   0  0  0  0  0  0  0  0  0  0  0  0
    8.7944   -5.3475   24.8392 C   0  0  0  0  0  0  0  0  0  0  0  0
    9.0428   -4.2246   24.0522 C   0  0  0  0  0  0  0  0  0  0  0  0
   10.1803   -3.4475   24.2809 C   0  0  0  0  0  0  0  0  0  0  0  0
   13.5636    2.3045   22.8153 C   0  0  0  0  0  0  0  0  0  0  0  0
   13.2278    3.7926   22.9037 C   0  0  2  0  0  0  0  0  0  0  0  0
   13.9453    4.3831   23.9911 O   0  0  0  0  0  0  0  0  0  0  0  0
    9.9641    6.7368   22.7388 O   0  0  0  0  0  0  0  0  0  0  0  0
    8.7292    7.0526   22.2002 N   0  0  0  0  0  0  0  0  0  0  0  0
  1  2  1  0
  2  3  1  0
  3  4  2  0
  4  5  1  0
  6  5  1  1
  6  7  1  0
  7  8  1  0
  8  9  1  0
  9 10  1  0
 10 11  1  0
 11 12  1  0
 12 13  1  0
 13 14  1  0
 14 15  2  0
 15 16  1  0
 16 17  2  0
 17 18  1  0
 18 19  2  0
  8 20  1  0
 20 21  1  0
 21 22  1  1
  4 23  1  0
 23 24  1  0
 24  2  2  0
 21  6  1  0
 19 14  1  0
M  END
