
     RDKit          3D

 22 24  0  0  0  0  0  0  0  0999 V2000
    9.0726   -2.9239   22.5677 O   0  0  0  0  0  0  0  0  0  0  0  0
    8.5387   -1.7255   23.1764 S   0  0  0  0  0  0  0  0  0  0  0  0
    7.7119   -1.8177   24.3633 O   0  0  0  0  0  0  0  0  0  0  0  0
    7.5949   -0.8540   21.9599 C   0  0  0  0  0  0  0  0  0  0  0  0
    7.9409   -0.9556   20.6050 C   0  0  0  0  0  0  0  0  0  0  0  0
    7.2180   -0.2331   19.6543 C   0  0  0  0  0  0  0  0  0  0  0  0
    6.1704    0.5868   20.0646 C   0  0  0  0  0  0  0  0  0  0  0  0
    5.4782    1.2766   19.1496 F   0  0  0  0  0  0  0  0  0  0  0  0
    5.8315    0.7006   21.4069 C   0  0  0  0  0  0  0  0  0  0  0  0
    6.5534   -0.0198   22.3536 C   0  0  0  0  0  0  0  0  0  0  0  0
    6.1927    0.0901   23.6383 F   0  0  0  0  0  0  0  0  0  0  0  0
    9.8253   -0.6707   23.5367 N   0  0  0  0  0  0  0  0  0  0  0  0
    9.5413    0.7816   23.4624 C   0  0  0  0  0  0  0  0  0  0  0  0
   10.5921    1.5464   24.2617 C   0  0  0  0  0  0  0  0  0  0  0  0
   12.0051    1.2022   23.7943 C   0  0  0  0  0  0  0  0  0  0  0  0
   12.2615   -0.3175   23.8342 C   0  0  1  0  0  0  0  0  0  0  0  0
   13.6581   -0.6486   23.2767 C   0  0  0  0  0  0  0  0  0  0  0  0
   14.0119   -2.0195   23.8527 C   0  0  0  0  0  0  0  0  0  0  0  0
   13.1252   -2.2174   25.0856 C   0  0  0  0  0  0  0  0  0  0  0  0
   12.3584   -0.9058   25.2596 C   0  0  1  0  0  0  0  0  0  0  0  0
   13.1247   -0.0457   26.1041 O   0  0  0  0  0  0  0  0  0  0  0  0
   11.1657   -1.0291   23.0058 C   0  0  0  0  0  0  0  0  0  0  0  0
  1  2  2  0
  2  3  2  0
  2  4  1  0
  4  5  2  0
  5  6  1  0
  6  7  2  0
  7  8  1  0
  7  9  1  0
  9 10  2  0
 10 11  1  0
  2 12  1  0
 12 13  1  0
 13 14  1  0
 14 15  1  0
 16 15  1  1
 16 17  1  0
 17 18  1  0
 18 19  1  0
 19 20  1  0
 20 21  1  1
 16 22  1  0
 10  4  1  0
 22 12  1  0
 20 16  1  0
M  END
