
     RDKit          3D

 24 26  0  0  0  0  0  0  0  0999 V2000
    9.2609   -4.7835   26.4417 C   0  0  0  0  0  0  0  0  0  0  0  0
   10.3749   -3.8698   26.1855 N   0  0  0  0  0  0  0  0  0  0  0  0
   11.6854   -4.5194   26.1605 C   0  0  0  0  0  0  0  0  0  0  0  0
   10.1550   -3.0414   25.0644 C   0  0  0  0  0  0  0  0  0  0  0  0
   10.5430   -1.7005   25.1078 C   0  0  0  0  0  0  0  0  0  0  0  0
   10.3207   -0.8695   24.0093 C   0  0  0  0  0  0  0  0  0  0  0  0
    9.7017   -1.3827   22.8724 C   0  0  0  0  0  0  0  0  0  0  0  0
    9.4401   -0.5326   21.6593 C   0  0  0  0  0  0  0  0  0  0  0  0
    8.0689   -0.6959   21.1509 N   0  0  0  0  0  0  0  0  0  0  0  0
    7.1048   -1.0183   22.2132 C   0  0  0  0  0  0  0  0  0  0  0  0
    5.7478   -0.6390   21.6166 C   0  0  0  0  0  0  0  0  0  0  0  0
    6.0534    0.2390   20.3726 C   0  0  1  0  0  0  0  0  0  0  0  0
    5.8880   -0.6266   19.0964 C   0  0  0  0  0  0  0  0  0  0  0  0
    5.5112   -1.7906   19.0759 O   0  0  0  0  0  0  0  0  0  0  0  0
    6.2456    0.0016   17.9440 O   0  0  0  0  0  0  0  0  0  0  0  0
    5.1659    1.4884   20.2959 C   0  0  0  0  0  0  0  0  0  0  0  0
    4.0080    1.5312   19.4990 C   0  0  0  0  0  0  0  0  0  0  0  0
    3.2075    2.6764   19.4500 C   0  0  0  0  0  0  0  0  0  0  0  0
    3.5372    3.7948   20.2089 C   0  0  0  0  0  0  0  0  0  0  0  0
    4.6599    3.7647   21.0290 C   0  0  0  0  0  0  0  0  0  0  0  0
    5.4610    2.6212   21.0781 C   0  0  0  0  0  0  0  0  0  0  0  0
    7.5493    0.5599   20.5712 C   0  0  0  0  0  0  0  0  0  0  0  0
    9.3309   -2.7185   22.9129 C   0  0  0  0  0  0  0  0  0  0  0  0
    9.5394   -3.5394   23.9687 N   0  0  0  0  0  0  0  0  0  0  0  0
  1  2  1  0
  2  3  1  0
  2  4  1  0
  4  5  2  0
  5  6  1  0
  6  7  2  0
  7  8  1  0
  8  9  1  0
  9 10  1  0
 10 11  1  0
 11 12  1  0
 12 13  1  6
 13 14  2  0
 13 15  1  0
 12 16  1  0
 16 17  2  0
 17 18  1  0
 18 19  2  0
 19 20  1  0
 20 21  2  0
 12 22  1  0
  7 23  1  0
 23 24  2  0
 24  4  1  0
 22  9  1  0
 21 16  1  0
M  END
