
     RDKit          3D

 24 27  0  0  0  0  0  0  0  0999 V2000
    6.9705   -3.1761   24.9791 O   0  0  0  0  0  0  0  0  0  0  0  0
    7.5516   -3.0647   23.9022 C   0  0  0  0  0  0  0  0  0  0  0  0
    7.0552   -3.8750   22.7622 C   0  0  0  0  0  0  0  0  0  0  0  0
    7.1951   -5.2627   22.7490 C   0  0  0  0  0  0  0  0  0  0  0  0
    6.6844   -5.9491   21.6635 C   0  0  0  0  0  0  0  0  0  0  0  0
    6.0536   -5.3524   20.6290 N   0  0  0  0  0  0  0  0  0  0  0  0
    5.9077   -4.0102   20.6865 C   0  0  0  0  0  0  0  0  0  0  0  0
    6.3821   -3.2323   21.7250 C   0  0  0  0  0  0  0  0  0  0  0  0
    8.6728   -2.2451   23.7084 N   0  0  0  0  0  0  0  0  0  0  0  0
    9.3277   -2.2056   22.3916 C   0  0  0  0  0  0  0  0  0  0  0  0
    9.2576   -0.8265   21.7413 C   0  0  0  0  0  0  0  0  0  0  0  0
    9.6610    0.3381   22.6538 C   0  0  0  0  0  0  0  0  0  0  0  0
    9.9740   -0.0799   24.1168 C   0  0  1  0  0  0  0  0  0  0  0  0
   11.4358   -0.6352   24.2068 C   0  0  0  0  0  0  0  0  0  0  0  0
   11.9749   -1.2881   25.2592 C   0  0  0  0  0  0  0  0  0  0  0  0
   13.3764   -1.8317   25.3083 C   0  0  0  0  0  0  0  0  0  0  0  0
   13.9983   -1.8686   24.0253 O   0  0  0  0  0  0  0  0  0  0  0  0
   13.8224   -0.6335   23.3364 C   0  0  0  0  0  0  0  0  0  0  0  0
   12.3434   -0.4464   22.9951 C   0  0  0  0  0  0  0  0  0  0  0  0
    9.8429    1.1694   25.0349 C   0  0  0  0  0  0  0  0  0  0  0  0
    9.9619    0.8147   26.4142 O   0  0  0  0  0  0  0  0  0  0  0  0
    8.8770   -0.0001   26.8495 C   0  0  0  0  0  0  0  0  0  0  0  0
    8.8086   -1.3048   26.0687 C   0  0  0  0  0  0  0  0  0  0  0  0
    8.7955   -1.0303   24.5497 C   0  0  2  0  0  0  0  0  0  0  0  0
  1  2  2  0
  2  3  1  0
  3  4  2  0
  4  5  1  0
  5  6  2  0
  6  7  1  0
  7  8  2  0
  2  9  1  0
  9 10  1  0
 10 11  1  0
 11 12  1  0
 12 13  1  0
 13 14  1  6
 14 15  2  0
 15 16  1  0
 16 17  1  0
 17 18  1  0
 18 19  1  0
 13 20  1  0
 20 21  1  0
 21 22  1  0
 22 23  1  0
 24 23  1  1
  8  3  1  0
 24  9  1  0
 24 13  1  0
 19 14  1  0
M  END
