
     RDKit          3D

 24 27  0  0  0  0  0  0  0  0999 V2000
   14.7615   -1.6054   26.7105 O   0  0  0  0  0  0  0  0  0  0  0  0
   13.8707   -1.7056   25.8708 C   0  0  0  0  0  0  0  0  0  0  0  0
   13.8666   -2.7849   24.8221 C   0  0  0  0  0  0  0  0  0  0  0  0
   13.8534   -2.1815   23.4316 C   0  0  0  0  0  0  0  0  0  0  0  0
   12.5342   -1.8838   22.9794 O   0  0  0  0  0  0  0  0  0  0  0  0
   11.8706   -0.7323   23.5448 C   0  0  0  0  0  0  0  0  0  0  0  0
   10.5148   -0.6880   22.8116 C   0  0  0  0  0  0  0  0  0  0  0  0
    9.7031    0.5669   23.1096 C   0  0  0  0  0  0  0  0  0  0  0  0
   10.4997    1.7805   22.8818 N   0  0  0  0  0  0  0  0  0  0  0  0
    9.7665    2.9460   22.8116 C   0  0  0  0  0  0  0  0  0  0  0  0
   10.1528    4.0998   23.3232 N   0  0  0  0  0  0  0  0  0  0  0  0
    9.2485    5.1205   23.1356 N   0  0  0  0  0  0  0  0  0  0  0  0
    8.1601    4.7283   22.5034 C   0  0  0  0  0  0  0  0  0  0  0  0
    7.0252    5.6125   22.1754 C   0  0  0  0  0  0  0  0  0  0  0  0
    5.7160    5.1366   22.3729 C   0  0  0  0  0  0  0  0  0  0  0  0
    4.6023    5.9290   22.0804 C   0  0  0  0  0  0  0  0  0  0  0  0
    4.7766    7.2161   21.5823 C   0  0  0  0  0  0  0  0  0  0  0  0
    6.0619    7.7090   21.3762 C   0  0  0  0  0  0  0  0  0  0  0  0
    7.1765    6.9148   21.6694 C   0  0  0  0  0  0  0  0  0  0  0  0
    8.2011    3.0638   22.0802 S   0  0  0  0  0  0  0  0  0  0  0  0
   11.8123    1.8172   23.5327 C   0  0  0  0  0  0  0  0  0  0  0  0
   12.6204    0.5666   23.2019 C   0  0  0  0  0  0  0  0  0  0  0  0
   11.6326   -0.9274   25.0662 C   0  0  0  0  0  0  0  0  0  0  0  0
   12.8328   -0.8219   25.8752 N   0  0  0  0  0  0  0  0  0  0  0  0
  1  2  2  0
  2  3  1  0
  3  4  1  0
  4  5  1  0
  5  6  1  0
  6  7  1  0
  7  8  1  0
  8  9  1  0
  9 10  1  0
 10 11  2  0
 11 12  1  0
 12 13  2  0
 13 14  1  0
 14 15  2  0
 15 16  1  0
 16 17  2  0
 17 18  1  0
 18 19  2  0
 13 20  1  0
  9 21  1  0
 21 22  1  0
  6 23  1  0
 23 24  1  0
 24  2  1  0
 22  6  1  0
 20 10  1  0
 19 14  1  0
M  END
