
     RDKit          3D

 25 27  0  0  0  0  0  0  0  0999 V2000
    5.8700   -0.8815   19.0403 C   0  0  0  0  0  0  0  0  0  0  0  0
    5.7793   -0.8376   20.5531 C   0  0  0  0  0  0  0  0  0  0  0  0
    6.1974   -2.0897   21.1595 N   0  0  0  0  0  0  0  0  0  0  0  0
    5.7756   -3.2323   20.6081 N   0  0  0  0  0  0  0  0  0  0  0  0
    6.3104   -4.1941   21.3741 C   0  0  0  0  0  0  0  0  0  0  0  0
    6.0274   -5.6028   21.0117 C   0  0  0  0  0  0  0  0  0  0  0  0
    7.0875   -3.6441   22.4328 C   0  0  0  0  0  0  0  0  0  0  0  0
    7.8248   -4.2053   23.4584 N   0  0  0  0  0  0  0  0  0  0  0  0
    8.2591   -5.5067   23.5898 C   0  0  0  0  0  0  0  0  0  0  0  0
    8.0337   -6.4471   22.8377 O   0  0  0  0  0  0  0  0  0  0  0  0
    9.0546   -5.7166   24.8889 C   0  0  0  0  0  0  0  0  0  0  0  0
    9.5086   -4.4187   25.4634 N   0  0  0  0  0  0  0  0  0  0  0  0
    8.9424   -4.2711   26.8103 C   0  0  0  0  0  0  0  0  0  0  0  0
   10.9884   -4.3823   25.5182 C   0  0  0  0  0  0  0  0  0  0  0  0
   11.5691   -3.1732   24.8030 C   0  0  0  0  0  0  0  0  0  0  0  0
   10.9928   -2.7431   23.5678 C   0  0  0  0  0  0  0  0  0  0  0  0
   11.4628   -1.6339   22.8310 C   0  0  0  0  0  0  0  0  0  0  0  0
   12.5577   -0.9666   23.4089 C   0  0  0  0  0  0  0  0  0  0  0  0
   13.2266    0.1056   22.9690 N   0  0  0  0  0  0  0  0  0  0  0  0
   14.2082    0.3507   23.9166 O   0  0  0  0  0  0  0  0  0  0  0  0
   14.1588   -0.5638   24.9594 N   0  0  0  0  0  0  0  0  0  0  0  0
   13.1484   -1.3895   24.6697 C   0  0  0  0  0  0  0  0  0  0  0  0
   12.6632   -2.4938   25.3947 C   0  0  0  0  0  0  0  0  0  0  0  0
    6.9961   -2.2717   22.2599 C   0  0  0  0  0  0  0  0  0  0  0  0
    7.5681   -1.1321   23.0257 C   0  0  0  0  0  0  0  0  0  0  0  0
  1  2  1  0
  2  3  1  0
  3  4  1  0
  4  5  2  0
  5  6  1  0
  5  7  1  0
  7  8  1  0
  8  9  1  0
  9 10  2  0
  9 11  1  0
 11 12  1  0
 12 13  1  0
 12 14  1  0
 14 15  1  0
 15 16  1  0
 16 17  2  0
 17 18  1  0
 18 19  2  0
 19 20  1  0
 20 21  1  0
 21 22  2  0
 22 23  1  0
  7 24  2  0
 24 25  1  0
 24  3  1  0
 23 15  2  0
 22 18  1  0
M  END
