
     RDKit          3D

 24 24  0  0  0  0  0  0  0  0999 V2000
   12.9614    3.2403   23.0829 C   0  0  0  0  0  0  0  0  0  0  0  0
   13.1227    1.8016   23.5540 C   0  0  0  0  0  0  0  0  0  0  0  0
   11.8769    1.3239   24.3110 C   0  0  0  0  0  0  0  0  0  0  0  0
   11.9515   -0.0822   24.7542 N   0  0  0  0  0  0  0  0  0  0  0  0
   12.7518   -0.2514   25.9788 C   0  0  0  0  0  0  0  0  0  0  0  0
   14.0760   -0.9453   25.6397 C   0  0  0  0  0  0  0  0  0  0  0  0
   13.8611   -2.4125   25.2996 C   0  0  0  0  0  0  0  0  0  0  0  0
   10.5917   -0.6987   24.8132 C   0  0  1  0  0  0  0  0  0  0  0  0
    9.5398    0.2196   25.4463 C   0  0  0  0  0  0  0  0  0  0  0  0
   10.0925   -1.1736   23.4211 C   0  0  0  0  0  0  0  0  0  0  0  0
   10.4689   -0.5995   22.3901 O   0  0  0  0  0  0  0  0  0  0  0  0
    9.2363   -2.2693   23.3443 N   0  0  0  0  0  0  0  0  0  0  0  0
    8.7799   -3.0857   24.4739 C   0  0  0  0  0  0  0  0  0  0  0  0
    9.5876   -4.3817   24.7170 C   0  0  0  0  0  0  0  0  0  0  0  0
    9.7816   -4.6989   26.1463 N   0  0  0  0  0  0  0  0  0  0  0  0
   11.1847   -5.0111   26.4400 C   0  0  0  0  0  0  0  0  0  0  0  0
    8.9476   -5.8395   26.5384 C   0  0  0  0  0  0  0  0  0  0  0  0
    8.7818   -2.6951   22.0229 C   0  0  0  0  0  0  0  0  0  0  0  0
    7.6465   -1.8333   21.6136 C   0  0  0  0  0  0  0  0  0  0  0  0
    6.4043   -1.5918   22.1518 C   0  0  0  0  0  0  0  0  0  0  0  0
    5.6997   -0.7078   21.3746 N   0  0  0  0  0  0  0  0  0  0  0  0
    6.4949   -0.4005   20.3706 C   0  0  0  0  0  0  0  0  0  0  0  0
    6.1974    0.5098   19.2416 C   0  0  0  0  0  0  0  0  0  0  0  0
    7.6955   -1.0503   20.4861 N   0  0  0  0  0  0  0  0  0  0  0  0
  1  2  1  0
  2  3  1  0
  3  4  1  0
  4  5  1  0
  5  6  1  0
  6  7  1  0
  4  8  1  0
  8  9  1  6
  8 10  1  0
 10 11  2  0
 10 12  1  0
 12 13  1  0
 13 14  1  0
 14 15  1  0
 15 16  1  0
 15 17  1  0
 12 18  1  0
 18 19  1  0
 19 20  2  0
 20 21  1  0
 21 22  2  0
 22 23  1  0
 22 24  1  0
 24 19  1  0
M  END
