
     RDKit          3D

 25 28  0  0  0  0  0  0  0  0999 V2000
    6.6170    0.7658   17.8128 O   0  0  0  0  0  0  0  0  0  0  0  0
    5.6935   -0.1048   18.4781 C   0  0  2  0  0  0  0  0  0  0  0  0
    4.6887    0.7441   19.2586 C   0  0  0  0  0  0  0  0  0  0  0  0
    5.3630    1.4818   20.4171 C   0  0  0  0  0  0  0  0  0  0  0  0
    6.1791    0.5324   21.2966 C   0  0  0  0  0  0  0  0  0  0  0  0
    7.1357   -0.2233   20.4620 N   0  0  0  0  0  0  0  0  0  0  0  0
    8.0100   -1.0012   21.2649 C   0  0  0  0  0  0  0  0  0  0  0  0
    7.5592   -2.2047   21.7723 C   0  0  0  0  0  0  0  0  0  0  0  0
    8.4393   -2.9124   22.5514 C   0  0  0  0  0  0  0  0  0  0  0  0
    9.6812   -2.4904   22.8310 N   0  0  0  0  0  0  0  0  0  0  0  0
   10.0425   -1.3120   22.3110 C   0  0  0  0  0  0  0  0  0  0  0  0
   11.3084   -0.7986   22.5500 N   0  0  0  0  0  0  0  0  0  0  0  0
   11.4757   -0.2378   23.8739 C   0  0  0  0  0  0  0  0  0  0  0  0
   11.3292    1.2660   23.7959 C   0  0  0  0  0  0  0  0  0  0  0  0
   10.1096    1.8748   24.1240 C   0  0  0  0  0  0  0  0  0  0  0  0
    9.9729    3.2620   24.0648 C   0  0  0  0  0  0  0  0  0  0  0  0
   11.0531    4.0567   23.6852 C   0  0  0  0  0  0  0  0  0  0  0  0
   12.2737    3.4692   23.3353 C   0  0  0  0  0  0  0  0  0  0  0  0
   12.4094    2.0744   23.4090 C   0  0  0  0  0  0  0  0  0  0  0  0
   13.4403    4.3154   22.9121 C   0  0  0  0  0  0  0  0  0  0  0  0
   12.9761    5.7129   22.5305 C   0  0  0  0  0  0  0  0  0  0  0  0
   12.0036    6.2119   23.5856 C   0  0  0  0  0  0  0  0  0  0  0  0
   10.8232    5.4068   23.6505 O   0  0  0  0  0  0  0  0  0  0  0  0
    9.2453   -0.5511   21.5499 N   0  0  0  0  0  0  0  0  0  0  0  0
    6.4640   -1.0444   19.4234 C   0  0  0  0  0  0  0  0  0  0  0  0
  2  1  1  1
  2  3  1  0
  3  4  1  0
  4  5  1  0
  5  6  1  0
  6  7  1  0
  7  8  2  0
  8  9  1  0
  9 10  2  0
 10 11  1  0
 11 12  1  0
 12 13  1  0
 13 14  1  0
 14 15  2  0
 15 16  1  0
 16 17  2  0
 17 18  1  0
 18 19  2  0
 18 20  1  0
 20 21  1  0
 21 22  1  0
 22 23  1  0
 11 24  2  0
  6 25  1  0
 25  2  1  0
 24  7  1  0
 19 14  1  0
 23 17  1  0
M  END
