
     RDKit          3D

 23 25  0  0  0  0  0  0  0  0999 V2000
   10.8444    3.1522   24.0674 C   0  0  0  0  0  0  0  0  0  0  0  0
   12.0347    2.2877   23.9485 C   0  0  0  0  0  0  0  0  0  0  0  0
   13.0692    2.2253   23.0416 C   0  0  0  0  0  0  0  0  0  0  0  0
   13.9115    1.1710   23.4678 C   0  0  0  0  0  0  0  0  0  0  0  0
   13.3444    0.6568   24.6150 C   0  0  0  0  0  0  0  0  0  0  0  0
   13.7270   -0.4554   25.5344 C   0  0  0  0  0  0  0  0  0  0  0  0
   13.5742   -1.7769   24.9082 N   0  0  0  0  0  0  0  0  0  0  0  0
   14.2915   -2.7927   25.6830 C   0  0  0  0  0  0  0  0  0  0  0  0
   12.1715   -2.1834   24.6619 C   0  0  0  0  0  0  0  0  0  0  0  0
   11.5682   -1.6185   23.3685 C   0  0  0  0  0  0  0  0  0  0  0  0
   12.2256   -1.5695   22.3327 O   0  0  0  0  0  0  0  0  0  0  0  0
   10.2608   -1.2147   23.5257 N   0  0  0  0  0  0  0  0  0  0  0  0
    9.5300   -0.6812   22.5031 C   0  0  0  0  0  0  0  0  0  0  0  0
    9.4510    0.5493   22.0609 N   0  0  0  0  0  0  0  0  0  0  0  0
    8.5773    0.6545   20.9943 N   0  0  0  0  0  0  0  0  0  0  0  0
    8.0157   -0.4995   20.6910 C   0  0  0  0  0  0  0  0  0  0  0  0
    7.0070   -0.7302   19.6029 C   0  0  1  0  0  0  0  0  0  0  0  0
    5.6001   -1.0101   20.1102 C   0  0  0  0  0  0  0  0  0  0  0  0
    5.0004    0.3722   20.2085 C   0  0  0  0  0  0  0  0  0  0  0  0
    5.6328    1.0738   19.0272 C   0  0  0  0  0  0  0  0  0  0  0  0
    6.9241    0.4815   18.8237 O   0  0  0  0  0  0  0  0  0  0  0  0
    8.5369   -1.8057   21.6905 S   0  0  0  0  0  0  0  0  0  0  0  0
   12.1931    1.3330   24.9077 O   0  0  0  0  0  0  0  0  0  0  0  0
  1  2  1  0
  2  3  2  0
  3  4  1  0
  4  5  2  0
  5  6  1  0
  6  7  1  0
  7  8  1  0
  7  9  1  0
  9 10  1  0
 10 11  2  0
 10 12  1  0
 12 13  1  0
 13 14  2  0
 14 15  1  0
 15 16  2  0
 17 16  1  1
 17 18  1  0
 18 19  1  0
 19 20  1  0
 20 21  1  0
 16 22  1  0
  5 23  1  0
 23  2  1  0
 22 13  1  0
 21 17  1  0
M  END
