
     RDKit          3D

 25 28  0  0  0  0  0  0  0  0999 V2000
    5.2164    1.9829   22.5113 C   0  0  0  0  0  0  0  0  0  0  0  0
    5.3141    1.3618   21.2090 N   0  0  0  0  0  0  0  0  0  0  0  0
    5.2055    2.0275   20.0170 C   0  0  0  0  0  0  0  0  0  0  0  0
    5.3484    1.1062   19.0047 C   0  0  0  0  0  0  0  0  0  0  0  0
    5.5546   -0.1672   19.6019 C   0  0  0  0  0  0  0  0  0  0  0  0
    5.7491   -1.4638   19.0848 C   0  0  0  0  0  0  0  0  0  0  0  0
    5.9280   -2.5365   19.9656 C   0  0  0  0  0  0  0  0  0  0  0  0
    5.9276   -2.3247   21.3451 C   0  0  0  0  0  0  0  0  0  0  0  0
    6.1120   -3.4948   22.2354 C   0  0  0  0  0  0  0  0  0  0  0  0
    5.2310   -4.3505   22.2727 O   0  0  0  0  0  0  0  0  0  0  0  0
    7.2774   -3.5877   22.9736 N   0  0  0  0  0  0  0  0  0  0  0  0
    8.1266   -2.4269   23.1490 C   0  0  0  0  0  0  0  0  0  0  0  0
    9.3363   -2.9401   23.9265 C   0  0  1  0  0  0  0  0  0  0  0  0
   10.0307   -1.8110   24.6922 C   0  0  0  0  0  0  0  0  0  0  0  0
   11.5243   -1.9976   24.7900 C   0  0  0  0  0  0  0  0  0  0  0  0
   12.3925   -1.1219   24.1433 C   0  0  0  0  0  0  0  0  0  0  0  0
   13.7647   -1.3209   24.2680 C   0  0  0  0  0  0  0  0  0  0  0  0
   14.2339   -2.3813   25.0324 C   0  0  0  0  0  0  0  0  0  0  0  0
   13.3056   -3.2084   25.6391 C   0  0  0  0  0  0  0  0  0  0  0  0
   11.9654   -3.0487   25.5278 N   0  0  0  0  0  0  0  0  0  0  0  0
    8.7053   -4.0238   24.8168 C   0  0  2  0  0  0  0  0  0  0  0  0
    9.6544   -4.9936   25.2283 O   0  0  0  0  0  0  0  0  0  0  0  0
    7.6489   -4.6503   23.9006 C   0  0  0  0  0  0  0  0  0  0  0  0
    5.7064   -1.0496   21.8848 C   0  0  0  0  0  0  0  0  0  0  0  0
    5.5328    0.0174   20.9879 C   0  0  0  0  0  0  0  0  0  0  0  0
  1  2  1  0
  2  3  1  0
  3  4  2  0
  4  5  1  0
  5  6  2  0
  6  7  1  0
  7  8  2  0
  8  9  1  0
  9 10  2  0
  9 11  1  0
 11 12  1  0
 12 13  1  0
 13 14  1  1
 14 15  1  0
 15 16  2  0
 16 17  1  0
 17 18  2  0
 18 19  1  0
 19 20  2  0
 13 21  1  0
 21 22  1  6
 21 23  1  0
  8 24  1  0
 24 25  2  0
 25  2  1  0
 25  5  1  0
 23 11  1  0
 20 15  1  0
M  END
