
     RDKit          3D

 25 28  0  0  0  0  0  0  0  0999 V2000
   12.4310    6.4701   22.8862 O   0  0  0  0  0  0  0  0  0  0  0  0
   11.4440    5.8209   23.2255 C   0  0  0  0  0  0  0  0  0  0  0  0
   10.2440    6.5685   23.6692 C   0  0  0  0  0  0  0  0  0  0  0  0
    9.3195    6.9956   22.7107 C   0  0  0  0  0  0  0  0  0  0  0  0
    8.1984    7.7259   23.1065 C   0  0  0  0  0  0  0  0  0  0  0  0
    8.0124    8.0438   24.4529 C   0  0  0  0  0  0  0  0  0  0  0  0
    8.9492    7.6408   25.4067 C   0  0  0  0  0  0  0  0  0  0  0  0
   10.0713    6.9089   25.0162 C   0  0  0  0  0  0  0  0  0  0  0  0
   11.4158    4.4190   23.2435 N   0  0  0  0  0  0  0  0  0  0  0  0
   10.1747    3.8088   23.7097 C   0  0  0  0  0  0  0  0  0  0  0  0
   10.0144    2.3707   23.2185 C   0  0  0  0  0  0  0  0  0  0  0  0
   11.2368    1.5266   23.5858 C   0  0  1  0  0  0  0  0  0  0  0  0
   11.2034    0.1420   23.0681 N   0  0  0  0  0  0  0  0  0  0  0  0
   10.7594   -0.8680   24.0379 C   0  0  0  0  0  0  0  0  0  0  0  0
    9.7888   -1.9434   23.4830 C   0  0  0  0  0  0  0  0  0  0  0  0
   10.1058   -3.1198   24.3540 C   0  0  0  0  0  0  0  0  0  0  0  0
    9.3565   -4.2693   24.5398 C   0  0  0  0  0  0  0  0  0  0  0  0
    9.8649   -5.2617   25.3806 C   0  0  0  0  0  0  0  0  0  0  0  0
   11.1091   -5.0983   26.0095 C   0  0  0  0  0  0  0  0  0  0  0  0
   11.8638   -3.9414   25.8046 C   0  0  0  0  0  0  0  0  0  0  0  0
   11.3455   -2.9581   24.9791 C   0  0  0  0  0  0  0  0  0  0  0  0
   11.9800   -1.6637   24.5757 C   0  0  0  0  0  0  0  0  0  0  0  0
   12.5098    2.2002   23.0156 C   0  0  2  0  0  0  0  0  0  0  0  0
   13.6596    1.4460   23.4088 O   0  0  0  0  0  0  0  0  0  0  0  0
   12.6308    3.6410   23.5126 C   0  0  0  0  0  0  0  0  0  0  0  0
  1  2  2  0
  2  3  1  0
  3  4  2  0
  4  5  1  0
  5  6  2  0
  6  7  1  0
  7  8  2  0
  2  9  1  0
  9 10  1  0
 10 11  1  0
 11 12  1  0
 12 13  1  6
 13 14  1  0
 14 15  1  0
 15 16  1  0
 16 17  2  0
 17 18  1  0
 18 19  2  0
 19 20  1  0
 20 21  2  0
 21 22  1  0
 12 23  1  0
 23 24  1  1
 23 25  1  0
  8  3  1  0
 25  9  1  0
 22 14  1  0
 21 16  1  0
M  END
