
     RDKit          3D

 24 26  0  0  0  0  0  0  0  0999 V2000
    8.8823   -4.4854   25.8650 C   0  0  0  0  0  0  0  0  0  0  0  0
   10.2108   -4.7362   25.2956 N   0  0  0  0  0  0  0  0  0  0  0  0
   11.0658   -5.3582   26.3079 C   0  0  0  0  0  0  0  0  0  0  0  0
   10.7803   -3.4721   24.7841 C   0  0  0  0  0  0  0  0  0  0  0  0
    9.8875   -2.7657   23.7413 C   0  0  0  0  0  0  0  0  0  0  0  0
   10.4759   -1.5286   23.2031 N   0  0  0  0  0  0  0  0  0  0  0  0
   11.9193   -1.5217   22.9705 C   0  0  0  0  0  0  0  0  0  0  0  0
   12.6572   -1.1613   24.2063 C   0  0  0  0  0  0  0  0  0  0  0  0
   12.5261   -0.1307   25.1112 C   0  0  0  0  0  0  0  0  0  0  0  0
   13.4767   -0.2182   26.0959 N   0  0  0  0  0  0  0  0  0  0  0  0
   14.1930   -1.2768   25.7936 C   0  0  0  0  0  0  0  0  0  0  0  0
   13.7455   -1.8730   24.6523 N   0  0  0  0  0  0  0  0  0  0  0  0
    9.7601   -0.3761   22.8805 C   0  0  0  0  0  0  0  0  0  0  0  0
   10.3044    0.6278   22.4178 O   0  0  0  0  0  0  0  0  0  0  0  0
    8.2592   -0.3390   23.0792 C   0  0  0  0  0  0  0  0  0  0  0  0
    7.4183   -0.8048   21.8881 C   0  0  0  0  0  0  0  0  0  0  0  0
    6.7440   -2.0414   21.9311 C   0  0  0  0  0  0  0  0  0  0  0  0
    5.9567   -2.4877   20.8647 C   0  0  0  0  0  0  0  0  0  0  0  0
    5.8249   -1.7061   19.7206 C   0  0  0  0  0  0  0  0  0  0  0  0
    6.4824   -0.4826   19.6461 C   0  0  0  0  0  0  0  0  0  0  0  0
    7.2641   -0.0493   20.7167 C   0  0  0  0  0  0  0  0  0  0  0  0
    7.8827    1.1351   20.6027 F   0  0  0  0  0  0  0  0  0  0  0  0
    7.7038   -0.3809   24.5012 C   0  0  0  0  0  0  0  0  0  0  0  0
    7.7247    0.9238   23.7832 C   0  0  0  0  0  0  0  0  0  0  0  0
  1  2  1  0
  2  3  1  0
  2  4  1  0
  4  5  1  0
  5  6  1  0
  6  7  1  0
  7  8  1  0
  8  9  2  0
  9 10  1  0
 10 11  2  0
 11 12  1  0
  6 13  1  0
 13 14  2  0
 13 15  1  0
 15 16  1  0
 16 17  2  0
 17 18  1  0
 18 19  2  0
 19 20  1  0
 20 21  2  0
 21 22  1  0
 15 23  1  0
 23 24  1  0
 12  8  1  0
 24 15  1  0
 21 16  1  0
M  END
