
     RDKit          3D

 24 25  0  0  0  0  0  0  0  0999 V2000
   14.1166   -2.4714   25.5921 C   0  0  0  0  0  0  0  0  0  0  0  0
   13.9970   -2.0729   24.1291 C   0  0  0  0  0  0  0  0  0  0  0  0
   13.1771   -0.8801   23.9359 N   0  0  0  0  0  0  0  0  0  0  0  0
   13.8551    0.3594   23.5690 C   0  0  0  0  0  0  0  0  0  0  0  0
   12.9971    1.5943   23.8220 C   0  0  0  0  0  0  0  0  0  0  0  0
   11.7180    1.4619   23.1316 N   0  0  0  0  0  0  0  0  0  0  0  0
   10.9583    2.5495   22.7088 C   0  0  0  0  0  0  0  0  0  0  0  0
    9.8922    2.4433   22.1066 O   0  0  0  0  0  0  0  0  0  0  0  0
   11.4604    3.9139   22.9655 C   0  0  0  0  0  0  0  0  0  0  0  0
   12.3858    4.4798   22.0793 C   0  0  0  0  0  0  0  0  0  0  0  0
   12.8460    5.7772   22.2991 C   0  0  0  0  0  0  0  0  0  0  0  0
   12.3821    6.5034   23.3967 C   0  0  0  0  0  0  0  0  0  0  0  0
   11.4432    5.9447   24.2687 C   0  0  0  0  0  0  0  0  0  0  0  0
   10.9528    4.6584   24.0374 C   0  0  0  0  0  0  0  0  0  0  0  0
   10.0655    4.0694   24.8942 O   0  0  0  0  0  0  0  0  0  0  0  0
    8.7203    4.5584   24.7965 C   0  0  0  0  0  0  0  0  0  0  0  0
    8.5869    5.4363   25.8368 F   0  0  0  0  0  0  0  0  0  0  0  0
    8.6054    5.3189   23.6731 F   0  0  0  0  0  0  0  0  0  0  0  0
    7.5982    3.5133   24.8921 C   0  0  0  0  0  0  0  0  0  0  0  0
    7.8292    2.6632   25.9349 F   0  0  0  0  0  0  0  0  0  0  0  0
    6.3932    4.0907   25.1529 F   0  0  0  0  0  0  0  0  0  0  0  0
   10.9858    0.2302   23.4240 C   0  0  0  0  0  0  0  0  0  0  0  0
   11.8151   -1.0422   23.6777 C   0  0  0  0  0  0  0  0  0  0  0  0
   11.2618   -2.1419   23.7403 O   0  0  0  0  0  0  0  0  0  0  0  0
  1  2  1  0
  2  3  1  0
  3  4  1  0
  4  5  1  0
  5  6  1  0
  6  7  1  0
  7  8  2  0
  7  9  1  0
  9 10  2  0
 10 11  1  0
 11 12  2  0
 12 13  1  0
 13 14  2  0
 14 15  1  0
 15 16  1  0
 16 17  1  0
 16 18  1  0
 16 19  1  0
 19 20  1  0
 19 21  1  0
  6 22  1  0
 22 23  1  0
 23 24  2  0
 23  3  1  0
 14  9  1  0
M  END
