
     RDKit          3D

 24 26  0  0  0  0  0  0  0  0999 V2000
    9.7971   -4.9036   25.3774 C   0  0  0  0  0  0  0  0  0  0  0  0
   11.0583   -4.1312   25.3729 C   0  0  0  0  0  0  0  0  0  0  0  0
   11.5125   -3.1132   24.5655 C   0  0  0  0  0  0  0  0  0  0  0  0
   12.7948   -2.7921   25.0635 C   0  0  0  0  0  0  0  0  0  0  0  0
   13.7453   -1.7535   24.5647 C   0  0  0  0  0  0  0  0  0  0  0  0
   13.0375   -0.5902   23.8703 C   0  0  2  0  0  0  0  0  0  0  0  0
   14.0246    0.4728   23.3955 C   0  0  0  0  0  0  0  0  0  0  0  0
   13.1316    1.5809   23.0480 N   0  0  0  0  0  0  0  0  0  0  0  0
   13.8186    2.8592   22.8433 C   0  0  0  0  0  0  0  0  0  0  0  0
   12.9583    3.8665   22.0698 C   0  0  0  0  0  0  0  0  0  0  0  0
   13.0847    5.3016   22.5994 C   0  0  0  0  0  0  0  0  0  0  0  0
   12.0035    5.7168   23.5973 C   0  0  0  0  0  0  0  0  0  0  0  0
   11.0471    6.5363   22.9301 O   0  0  0  0  0  0  0  0  0  0  0  0
    9.8017    6.6227   23.4877 C   0  0  0  0  0  0  0  0  0  0  0  0
    9.5071    6.5938   24.8514 C   0  0  0  0  0  0  0  0  0  0  0  0
    8.1814    6.6945   25.2857 C   0  0  0  0  0  0  0  0  0  0  0  0
    7.1469    6.8256   24.3607 C   0  0  0  0  0  0  0  0  0  0  0  0
    7.4357    6.8576   22.9989 C   0  0  0  0  0  0  0  0  0  0  0  0
    8.7592    6.7571   22.5668 C   0  0  0  0  0  0  0  0  0  0  0  0
   12.1681    1.6566   24.1639 C   0  0  0  0  0  0  0  0  0  0  0  0
   12.0454    0.2244   24.7110 C   0  0  2  0  0  0  0  0  0  0  0  0
   12.3765    0.2143   26.0982 O   0  0  0  0  0  0  0  0  0  0  0  0
   13.1211   -3.5517   26.1193 N   0  0  0  0  0  0  0  0  0  0  0  0
   12.0573   -4.3585   26.2781 N   0  0  0  0  0  0  0  0  0  0  0  0
  1  2  1  0
  2  3  2  0
  3  4  1  0
  4  5  1  0
  6  5  1  1
  6  7  1  0
  7  8  1  0
  8  9  1  0
  9 10  1  0
 10 11  1  0
 11 12  1  0
 12 13  1  0
 13 14  1  0
 14 15  2  0
 15 16  1  0
 16 17  2  0
 17 18  1  0
 18 19  2  0
  8 20  1  0
 20 21  1  0
 21 22  1  1
  4 23  2  0
 23 24  1  0
 24  2  1  0
 21  6  1  0
 19 14  1  0
M  END
