
     RDKit          3D

 24 27  0  0  0  0  0  0  0  0999 V2000
   13.7737   -2.5163   25.6256 C   0  0  0  0  0  0  0  0  0  0  0  0
   13.2073   -1.5605   24.6208 C   0  0  0  0  0  0  0  0  0  0  0  0
   13.1025   -0.2381   24.8409 C   0  0  0  0  0  0  0  0  0  0  0  0
   12.5763    0.7532   23.8167 C   0  0  0  0  0  0  0  0  0  0  0  0
   13.6074    1.8769   23.6229 C   0  0  0  0  0  0  0  0  0  0  0  0
   13.0881    2.9598   22.6807 C   0  0  0  0  0  0  0  0  0  0  0  0
   11.7871    3.4801   23.1046 N   0  0  0  0  0  0  0  0  0  0  0  0
   11.3316    4.7703   22.8134 C   0  0  0  0  0  0  0  0  0  0  0  0
   12.0308    5.5723   22.1823 O   0  0  0  0  0  0  0  0  0  0  0  0
    9.9331    5.1962   23.3219 C   0  0  1  0  0  0  0  0  0  0  0  0
   10.0604    5.5565   24.8117 C   0  0  0  0  0  0  0  0  0  0  0  0
    8.8852    6.3437   25.3345 C   0  0  0  0  0  0  0  0  0  0  0  0
    8.7145    6.5111   26.7157 C   0  0  0  0  0  0  0  0  0  0  0  0
    7.6505    7.2655   27.2083 C   0  0  0  0  0  0  0  0  0  0  0  0
    6.7533    7.8622   26.3263 C   0  0  0  0  0  0  0  0  0  0  0  0
    6.9215    7.7085   24.9500 C   0  0  0  0  0  0  0  0  0  0  0  0
    7.9937    6.9607   24.4408 C   0  0  0  0  0  0  0  0  0  0  0  0
    8.1302    6.7722   22.9498 C   0  0  0  0  0  0  0  0  0  0  0  0
    9.4601    6.3491   22.5163 N   0  0  0  0  0  0  0  0  0  0  0  0
   10.7668    2.4613   23.3517 C   0  0  0  0  0  0  0  0  0  0  0  0
   11.2566    1.3737   24.3018 C   0  0  0  0  0  0  0  0  0  0  0  0
   12.4049    0.1342   22.5255 O   0  0  0  0  0  0  0  0  0  0  0  0
   11.8280   -1.1705   22.5738 C   0  0  0  0  0  0  0  0  0  0  0  0
   12.7510   -2.1386   23.3089 C   0  0  0  0  0  0  0  0  0  0  0  0
  1  2  1  0
  2  3  2  0
  3  4  1  0
  4  5  1  0
  5  6  1  0
  6  7  1  0
  7  8  1  0
  8  9  2  0
 10  8  1  6
 10 11  1  0
 11 12  1  0
 12 13  2  0
 13 14  1  0
 14 15  2  0
 15 16  1  0
 16 17  2  0
 17 18  1  0
 18 19  1  0
  7 20  1  0
 20 21  1  0
  4 22  1  0
 22 23  1  0
 23 24  1  0
 24  2  1  0
 21  4  1  0
 19 10  1  0
 17 12  1  0
M  END
