
     RDKit          3D

 25 26  0  0  0  0  0  0  0  0999 V2000
    4.3280    1.3634   18.7211 C   0  0  0  0  0  0  0  0  0  0  0  0
    5.6864    1.1348   19.0719 O   0  0  0  0  0  0  0  0  0  0  0  0
    5.9461    0.0610   19.8772 C   0  0  0  0  0  0  0  0  0  0  0  0
    6.3339    0.3866   21.1784 C   0  0  0  0  0  0  0  0  0  0  0  0
    6.6371   -0.6129   22.1058 C   0  0  0  0  0  0  0  0  0  0  0  0
    6.5649   -1.9610   21.7392 C   0  0  0  0  0  0  0  0  0  0  0  0
    6.9412   -3.0537   22.7165 C   0  0  0  0  0  0  0  0  0  0  0  0
    8.2876   -2.7937   23.3996 C   0  0  0  0  0  0  0  0  0  0  0  0
    8.9121   -4.0771   23.9313 C   0  0  0  0  0  0  0  0  0  0  0  0
    8.4144   -5.1748   23.6642 O   0  0  0  0  0  0  0  0  0  0  0  0
   10.0462   -3.9763   24.7315 N   0  0  0  0  0  0  0  0  0  0  0  0
   10.6181   -5.0950   25.4955 C   0  0  0  0  0  0  0  0  0  0  0  0
   10.5720   -4.8834   27.0251 C   0  0  0  0  0  0  0  0  0  0  0  0
    9.3536   -5.4346   27.6525 N   0  0  0  0  0  0  0  0  0  0  0  0
    9.3441   -5.2123   29.1004 C   0  0  0  0  0  0  0  0  0  0  0  0
    8.1686   -4.8102   27.0533 C   0  0  0  0  0  0  0  0  0  0  0  0
   10.5658   -2.6381   25.0103 C   0  0  0  0  0  0  0  0  0  0  0  0
   12.0491   -2.6467   24.9362 C   0  0  0  0  0  0  0  0  0  0  0  0
   12.8342   -3.2004   25.9210 N   0  0  0  0  0  0  0  0  0  0  0  0
   14.1345   -3.0802   25.5316 C   0  0  0  0  0  0  0  0  0  0  0  0
   14.2365   -2.4443   24.3873 N   0  0  0  0  0  0  0  0  0  0  0  0
   12.9465   -2.1571   24.0055 C   0  0  0  0  0  0  0  0  0  0  0  0
   12.6806   -1.4376   22.7400 C   0  0  0  0  0  0  0  0  0  0  0  0
    6.1673   -2.2838   20.4353 C   0  0  0  0  0  0  0  0  0  0  0  0
    5.8598   -1.2806   19.5095 C   0  0  0  0  0  0  0  0  0  0  0  0
  1  2  1  0
  2  3  1  0
  3  4  2  0
  4  5  1  0
  5  6  2  0
  6  7  1  0
  7  8  1  0
  8  9  1  0
  9 10  2  0
  9 11  1  0
 11 12  1  0
 12 13  1  0
 13 14  1  0
 14 15  1  0
 14 16  1  0
 11 17  1  0
 17 18  1  0
 18 19  1  0
 19 20  1  0
 20 21  2  0
 21 22  1  0
 22 23  1  0
  6 24  1  0
 24 25  2  0
 25  3  1  0
 22 18  2  0
M  END
