
     RDKit          3D

 24 27  0  0  0  0  0  0  0  0999 V2000
    6.9897   -3.1369   21.5969 N   0  0  0  0  0  0  0  0  0  0  0  0
    7.3416   -1.8523   21.3826 C   0  0  0  0  0  0  0  0  0  0  0  0
    6.7975   -1.1421   20.4012 N   0  0  0  0  0  0  0  0  0  0  0  0
    7.4364    0.3802   20.4117 S   0  0  0  0  0  0  0  0  0  0  0  0
    8.4748    0.1224   21.7395 C   0  0  0  0  0  0  0  0  0  0  0  0
    8.3160   -1.1759   22.2008 C   0  0  0  0  0  0  0  0  0  0  0  0
    9.0611   -1.7702   23.3096 C   0  0  0  0  0  0  0  0  0  0  0  0
    8.9687   -2.9682   23.5714 O   0  0  0  0  0  0  0  0  0  0  0  0
    9.8979   -0.8954   24.0423 N   0  0  0  0  0  0  0  0  0  0  0  0
    9.4590   -0.7577   25.4398 C   0  0  0  0  0  0  0  0  0  0  0  0
   10.2351    0.2737   26.2473 C   0  0  0  0  0  0  0  0  0  0  0  0
   11.7407    0.0840   26.1058 C   0  0  0  0  0  0  0  0  0  0  0  0
   12.1939    0.0238   24.6261 C   0  0  1  0  0  0  0  0  0  0  0  0
   12.1031    1.4649   24.0115 C   0  0  0  0  0  0  0  0  0  0  0  0
   10.9294    2.0508   23.6810 C   0  0  0  0  0  0  0  0  0  0  0  0
   10.7924    3.4078   23.0475 C   0  0  0  0  0  0  0  0  0  0  0  0
   12.0309    3.9050   22.5430 O   0  0  0  0  0  0  0  0  0  0  0  0
   13.0689    3.7578   23.5063 C   0  0  0  0  0  0  0  0  0  0  0  0
   13.3618    2.2709   23.7255 C   0  0  0  0  0  0  0  0  0  0  0  0
   13.6564   -0.5185   24.5923 C   0  0  0  0  0  0  0  0  0  0  0  0
   14.1286   -0.6454   23.2486 O   0  0  0  0  0  0  0  0  0  0  0  0
   13.3843   -1.5993   22.4957 C   0  0  0  0  0  0  0  0  0  0  0  0
   11.8969   -1.2608   22.4562 C   0  0  0  0  0  0  0  0  0  0  0  0
   11.3607   -1.0940   23.8971 C   0  0  2  0  0  0  0  0  0  0  0  0
  1  2  1  0
  2  3  2  0
  3  4  1  0
  4  5  1  0
  5  6  2  0
  6  7  1  0
  7  8  2  0
  7  9  1  0
  9 10  1  0
 10 11  1  0
 11 12  1  0
 12 13  1  0
 13 14  1  6
 14 15  2  0
 15 16  1  0
 16 17  1  0
 17 18  1  0
 18 19  1  0
 13 20  1  0
 20 21  1  0
 21 22  1  0
 22 23  1  0
 24 23  1  6
  6  2  1  0
 24  9  1  0
 24 13  1  0
 19 14  1  0
M  END
