
     RDKit          3D

 24 25  0  0  0  0  0  0  0  0999 V2000
    8.8951   -5.6000   25.4000 C   0  0  0  0  0  0  0  0  0  0  0  0
    9.3247   -4.5817   26.3632 N   0  0  0  0  0  0  0  0  0  0  0  0
   10.1093   -5.2171   27.4266 C   0  0  0  0  0  0  0  0  0  0  0  0
   10.0892   -3.5249   25.6742 C   0  0  0  0  0  0  0  0  0  0  0  0
    9.2793   -2.7849   24.5897 C   0  0  0  0  0  0  0  0  0  0  0  0
    9.9965   -1.6113   24.0680 N   0  0  0  0  0  0  0  0  0  0  0  0
   10.7523   -1.7979   22.8357 C   0  0  0  0  0  0  0  0  0  0  0  0
   12.1862   -1.9304   23.1766 C   0  0  0  0  0  0  0  0  0  0  0  0
   13.3460   -1.5432   22.5429 C   0  0  0  0  0  0  0  0  0  0  0  0
   14.4482   -1.9040   23.2770 N   0  0  0  0  0  0  0  0  0  0  0  0
   13.9741   -2.5236   24.3325 C   0  0  0  0  0  0  0  0  0  0  0  0
   12.6100   -2.5511   24.3278 N   0  0  0  0  0  0  0  0  0  0  0  0
   10.1034   -0.3858   24.7184 C   0  0  0  0  0  0  0  0  0  0  0  0
    9.6126   -0.1576   25.8218 O   0  0  0  0  0  0  0  0  0  0  0  0
   10.8554    0.7099   24.0777 C   0  0  0  0  0  0  0  0  0  0  0  0
   10.2145    1.5059   23.1255 C   0  0  0  0  0  0  0  0  0  0  0  0
   10.8996    2.5711   22.5351 C   0  0  0  0  0  0  0  0  0  0  0  0
   12.2154    2.8483   22.9145 C   0  0  0  0  0  0  0  0  0  0  0  0
   12.9786    3.8583   22.3985 O   0  0  0  0  0  0  0  0  0  0  0  0
   12.5349    5.1669   22.7301 C   0  0  0  0  0  0  0  0  0  0  0  0
   13.5645    6.0356   22.5619 F   0  0  0  0  0  0  0  0  0  0  0  0
   12.2371    5.1683   24.0530 F   0  0  0  0  0  0  0  0  0  0  0  0
   12.8530    2.0402   23.8606 C   0  0  0  0  0  0  0  0  0  0  0  0
   12.1701    0.9821   24.4612 C   0  0  0  0  0  0  0  0  0  0  0  0
  1  2  1  0
  2  3  1  0
  2  4  1  0
  4  5  1  0
  5  6  1  0
  6  7  1  0
  7  8  1  0
  8  9  2  0
  9 10  1  0
 10 11  2  0
 11 12  1  0
  6 13  1  0
 13 14  2  0
 13 15  1  0
 15 16  2  0
 16 17  1  0
 17 18  2  0
 18 19  1  0
 19 20  1  0
 20 21  1  0
 20 22  1  0
 18 23  1  0
 23 24  2  0
 12  8  1  0
 24 15  1  0
M  END
