
     RDKit          3D

 25 27  0  0  0  0  0  0  0  0999 V2000
    6.2332    0.6062   19.6215 C   0  0  0  0  0  0  0  0  0  0  0  0
    7.3492    0.2764   20.5388 C   0  0  0  0  0  0  0  0  0  0  0  0
    7.9611    1.1001   21.3639 N   0  0  0  0  0  0  0  0  0  0  0  0
    8.9122    0.3480   22.0032 C   0  0  0  0  0  0  0  0  0  0  0  0
    8.8965   -0.9518   21.5509 C   0  0  0  0  0  0  0  0  0  0  0  0
    9.6993   -2.1499   21.9081 C   0  0  0  0  0  0  0  0  0  0  0  0
   10.5871   -1.8781   23.0590 N   0  0  0  0  0  0  0  0  0  0  0  0
   10.7180   -3.0961   23.8993 C   0  0  0  0  0  0  0  0  0  0  0  0
   10.2383   -2.8503   25.3514 C   0  0  0  0  0  0  0  0  0  0  0  0
   10.2858   -4.0676   26.1844 N   0  0  0  0  0  0  0  0  0  0  0  0
   11.6673   -4.5331   26.3233 C   0  0  0  0  0  0  0  0  0  0  0  0
    9.4575   -5.1401   25.6307 C   0  0  0  0  0  0  0  0  0  0  0  0
   11.9179   -1.4544   22.5690 C   0  0  0  0  0  0  0  0  0  0  0  0
   12.8553   -1.1804   23.6992 C   0  0  0  0  0  0  0  0  0  0  0  0
   13.6600   -2.0707   24.3896 C   0  0  0  0  0  0  0  0  0  0  0  0
   14.1891   -1.3401   25.4536 C   0  0  0  0  0  0  0  0  0  0  0  0
   13.7878   -0.0725   25.4428 N   0  0  0  0  0  0  0  0  0  0  0  0
   13.0674    0.0641   24.2930 N   0  0  0  0  0  0  0  0  0  0  0  0
   12.6681    1.3738   23.8853 C   0  0  0  0  0  0  0  0  0  0  0  0
   11.4104    1.8529   24.2885 C   0  0  0  0  0  0  0  0  0  0  0  0
   10.9792    3.1260   23.9100 C   0  0  0  0  0  0  0  0  0  0  0  0
   11.8012    3.9405   23.1398 C   0  0  0  0  0  0  0  0  0  0  0  0
   13.0656    3.4910   22.7652 C   0  0  0  0  0  0  0  0  0  0  0  0
   13.5015    2.2158   23.1408 C   0  0  0  0  0  0  0  0  0  0  0  0
    7.8835   -0.9828   20.6254 N   0  0  0  0  0  0  0  0  0  0  0  0
  1  2  1  0
  2  3  2  0
  3  4  1  0
  4  5  2  0
  5  6  1  0
  6  7  1  0
  7  8  1  0
  8  9  1  0
  9 10  1  0
 10 11  1  0
 10 12  1  0
  7 13  1  0
 13 14  1  0
 14 15  2  0
 15 16  1  0
 16 17  2  0
 17 18  1  0
 18 19  1  0
 19 20  2  0
 20 21  1  0
 21 22  2  0
 22 23  1  0
 23 24  2  0
  5 25  1  0
 25  2  1  0
 18 14  1  0
 24 19  1  0
M  END
