
     RDKit          3D

 25 27  0  0  0  0  0  0  0  0999 V2000
    6.9843    6.0681   21.4615 C   0  0  0  0  0  0  0  0  0  0  0  0
    7.1418    6.3220   22.8527 O   0  0  0  0  0  0  0  0  0  0  0  0
    8.4077    6.1911   23.3584 C   0  0  0  0  0  0  0  0  0  0  0  0
    9.1135    4.9866   23.4597 C   0  0  0  0  0  0  0  0  0  0  0  0
   10.4087    4.9502   24.0039 C   0  0  0  0  0  0  0  0  0  0  0  0
   11.1479    3.6971   24.1155 C   0  0  0  0  0  0  0  0  0  0  0  0
   10.4017    2.6457   24.5653 O   0  0  0  0  0  0  0  0  0  0  0  0
   11.1811    1.5136   24.6502 N   0  0  0  0  0  0  0  0  0  0  0  0
   12.4007    1.8841   24.2569 C   0  0  0  0  0  0  0  0  0  0  0  0
   13.5141    1.0803   24.1952 N   0  0  0  0  0  0  0  0  0  0  0  0
   13.7342    0.4006   22.8876 C   0  0  0  0  0  0  0  0  0  0  0  0
   13.5713   -1.0925   23.1489 C   0  0  0  0  0  0  0  0  0  0  0  0
   14.1471   -1.2321   24.5552 C   0  0  2  0  0  0  0  0  0  0  0  0
   13.9647   -2.5159   25.2511 N   0  0  0  0  0  0  0  0  0  0  0  0
   14.8154   -2.7037   26.4268 C   0  0  0  0  0  0  0  0  0  0  0  0
   12.5619   -2.7282   25.6179 C   0  0  0  0  0  0  0  0  0  0  0  0
   13.5456    0.0118   25.2492 C   0  0  0  0  0  0  0  0  0  0  0  0
   12.4390    3.2566   23.8858 C   0  0  0  0  0  0  0  0  0  0  0  0
   13.5545    4.0105   23.3588 C   0  0  0  0  0  0  0  0  0  0  0  0
   14.5235    4.3640   24.0157 O   0  0  0  0  0  0  0  0  0  0  0  0
   13.4614    4.3192   22.0365 O   0  0  0  0  0  0  0  0  0  0  0  0
   10.9998    6.1544   24.4210 C   0  0  0  0  0  0  0  0  0  0  0  0
   10.3116    7.3624   24.3044 C   0  0  0  0  0  0  0  0  0  0  0  0
    9.0263    7.3719   23.7746 C   0  0  0  0  0  0  0  0  0  0  0  0
    8.3826    8.5449   23.6755 F   0  0  0  0  0  0  0  0  0  0  0  0
  1  2  1  0
  2  3  1  0
  3  4  2  0
  4  5  1  0
  5  6  1  0
  6  7  1  0
  7  8  1  0
  8  9  2  0
  9 10  1  0
 10 11  1  0
 11 12  1  0
 12 13  1  0
 13 14  1  1
 14 15  1  0
 14 16  1  0
 13 17  1  0
  9 18  1  0
 18 19  1  0
 19 20  2  0
 19 21  1  0
  5 22  2  0
 22 23  1  0
 23 24  2  0
 24 25  1  0
 24  3  1  0
 18  6  2  0
 17 10  1  0
M  END
