
     RDKit          3D

 24 27  0  0  0  0  0  0  0  0999 V2000
   12.7553    1.2577   25.1163 N   0  0  0  0  0  0  0  0  0  0  0  0
   13.2504   -0.0405   25.0044 C   0  0  0  0  0  0  0  0  0  0  0  0
   13.7704   -0.5374   26.1435 N   0  0  0  0  0  0  0  0  0  0  0  0
   14.2911   -1.7824   26.1019 C   0  0  0  0  0  0  0  0  0  0  0  0
   14.3285   -2.5623   24.9630 C   0  0  0  0  0  0  0  0  0  0  0  0
   13.7829   -2.0361   23.7994 C   0  0  0  0  0  0  0  0  0  0  0  0
   13.2034   -0.7577   23.8065 C   0  0  0  0  0  0  0  0  0  0  0  0
   12.6124   -0.1656   22.5442 C   0  0  0  0  0  0  0  0  0  0  0  0
   11.1835   -0.4943   22.3288 N   0  0  0  0  0  0  0  0  0  0  0  0
   10.9550   -1.9498   22.3944 C   0  0  0  0  0  0  0  0  0  0  0  0
   10.5523   -2.4732   23.7697 C   0  0  0  0  0  0  0  0  0  0  0  0
    9.3892   -1.7144   24.4188 C   0  0  0  0  0  0  0  0  0  0  0  0
    8.9506   -0.4325   23.6449 C   0  0  1  0  0  0  0  0  0  0  0  0
    7.9672   -0.8154   22.4934 C   0  0  0  0  0  0  0  0  0  0  0  0
    7.9624   -0.2937   21.2488 C   0  0  0  0  0  0  0  0  0  0  0  0
    7.0139   -0.6968   20.1533 C   0  0  0  0  0  0  0  0  0  0  0  0
    6.2657   -1.8720   20.4638 O   0  0  0  0  0  0  0  0  0  0  0  0
    5.7562   -1.8317   21.7938 C   0  0  0  0  0  0  0  0  0  0  0  0
    6.9173   -1.8807   22.7867 C   0  0  0  0  0  0  0  0  0  0  0  0
    8.1814    0.5165   24.6319 C   0  0  0  0  0  0  0  0  0  0  0  0
    8.7158    1.8445   24.6978 O   0  0  0  0  0  0  0  0  0  0  0  0
    8.9117    2.3899   23.3998 C   0  0  0  0  0  0  0  0  0  0  0  0
   10.1059    1.7177   22.7442 C   0  0  0  0  0  0  0  0  0  0  0  0
   10.3031    0.2747   23.2495 C   0  0  2  0  0  0  0  0  0  0  0  0
  1  2  1  0
  2  3  2  0
  3  4  1  0
  4  5  2  0
  5  6  1  0
  6  7  2  0
  7  8  1  0
  8  9  1  0
  9 10  1  0
 10 11  1  0
 11 12  1  0
 12 13  1  0
 13 14  1  6
 14 15  2  0
 15 16  1  0
 16 17  1  0
 17 18  1  0
 18 19  1  0
 13 20  1  0
 20 21  1  0
 21 22  1  0
 22 23  1  0
 24 23  1  6
  7  2  1  0
 24  9  1  0
 24 13  1  0
 19 14  1  0
M  END
