
     RDKit          3D

 25 28  0  0  0  0  0  0  0  0999 V2000
   10.7944   -3.6369   24.3851 C   0  0  0  0  0  0  0  0  0  0  0  0
   11.9869   -2.7985   24.5284 N   0  0  0  0  0  0  0  0  0  0  0  0
   12.6439   -3.0990   25.8130 C   0  0  0  0  0  0  0  0  0  0  0  0
   13.9422   -2.3142   25.9846 C   0  0  0  0  0  0  0  0  0  0  0  0
   13.7206   -0.8141   25.8037 C   0  0  0  0  0  0  0  0  0  0  0  0
   13.0030   -0.5054   24.4647 C   0  0  2  0  0  0  0  0  0  0  0  0
   14.0013   -0.7755   23.3370 C   0  0  0  0  0  0  0  0  0  0  0  0
   14.0283   -1.7848   22.6452 O   0  0  0  0  0  0  0  0  0  0  0  0
   14.9602    0.1456   23.1678 O   0  0  0  0  0  0  0  0  0  0  0  0
   12.6634    0.9979   24.4105 C   0  0  0  0  0  0  0  0  0  0  0  0
   11.8054    1.3564   23.1993 C   0  0  0  0  0  0  0  0  0  0  0  0
   10.5895    0.5482   23.1909 N   0  0  0  0  0  0  0  0  0  0  0  0
    9.5504    0.9790   22.4232 C   0  0  0  0  0  0  0  0  0  0  0  0
    8.8352    0.3069   21.5537 N   0  0  0  0  0  0  0  0  0  0  0  0
    7.9333    1.2425   21.0957 C   0  0  0  0  0  0  0  0  0  0  0  0
    6.9245    0.9229   20.0901 C   0  0  0  0  0  0  0  0  0  0  0  0
    5.7553    1.6894   19.9662 C   0  0  0  0  0  0  0  0  0  0  0  0
    4.7963    1.3747   18.9993 C   0  0  0  0  0  0  0  0  0  0  0  0
    4.9947    0.2909   18.1462 C   0  0  0  0  0  0  0  0  0  0  0  0
    6.1502   -0.4801   18.2580 C   0  0  0  0  0  0  0  0  0  0  0  0
    7.1100   -0.1655   19.2239 C   0  0  0  0  0  0  0  0  0  0  0  0
    8.0766    2.4542   21.6558 N   0  0  0  0  0  0  0  0  0  0  0  0
    9.1385    2.2803   22.5385 O   0  0  0  0  0  0  0  0  0  0  0  0
   10.7753   -0.9125   23.2307 C   0  0  0  0  0  0  0  0  0  0  0  0
   11.6906   -1.3414   24.4160 C   0  0  1  0  0  0  0  0  0  0  0  0
  1  2  1  0
  2  3  1  0
  3  4  1  0
  4  5  1  0
  5  6  1  0
  6  7  1  6
  7  8  2  0
  7  9  1  0
  6 10  1  0
 10 11  1  0
 11 12  1  0
 12 13  1  0
 13 14  2  0
 14 15  1  0
 15 16  1  0
 16 17  2  0
 17 18  1  0
 18 19  2  0
 19 20  1  0
 20 21  2  0
 15 22  2  0
 22 23  1  0
 12 24  1  0
 25 24  1  6
 25  2  1  0
 25  6  1  0
 23 13  1  0
 21 16  1  0
M  END
