
     RDKit          3D

 23 25  0  0  0  0  0  0  0  0999 V2000
   14.4184    3.9839   24.0005 O   0  0  0  0  0  0  0  0  0  0  0  0
   13.6929    3.1226   23.5110 C   0  0  0  0  0  0  0  0  0  0  0  0
   13.5360    1.7266   24.1275 C   0  0  0  0  0  0  0  0  0  0  0  0
   13.2293    0.7072   23.0908 N   0  0  0  0  0  0  0  0  0  0  0  0
   11.8630    0.1876   23.2344 C   0  0  0  0  0  0  0  0  0  0  0  0
   11.6665   -0.7287   24.4443 C   0  0  0  0  0  0  0  0  0  0  0  0
   12.6584   -1.9028   24.4224 C   0  0  0  0  0  0  0  0  0  0  0  0
   12.5470   -2.7829   25.6841 C   0  0  2  0  0  0  0  0  0  0  0  0
   13.7574   -3.5122   25.8862 O   0  0  0  0  0  0  0  0  0  0  0  0
   11.4267   -3.7917   25.6436 C   0  0  0  0  0  0  0  0  0  0  0  0
   10.5075   -3.9895   24.6293 C   0  0  0  0  0  0  0  0  0  0  0  0
    9.5832   -5.0326   24.9245 C   0  0  0  0  0  0  0  0  0  0  0  0
    9.8198   -5.5971   26.1572 C   0  0  0  0  0  0  0  0  0  0  0  0
   11.1432   -4.8674   26.9542 S   0  0  0  0  0  0  0  0  0  0  0  0
   14.0915   -1.3645   24.2571 C   0  0  0  0  0  0  0  0  0  0  0  0
   14.2039   -0.3972   23.0761 C   0  0  0  0  0  0  0  0  0  0  0  0
   12.9060    3.3354   22.4060 N   0  0  0  0  0  0  0  0  0  0  0  0
   12.9152    4.5842   21.6908 C   0  0  0  0  0  0  0  0  0  0  0  0
   12.2888    5.6275   22.5359 C   0  0  0  0  0  0  0  0  0  0  0  0
   10.9837    5.9032   22.8924 C   0  0  0  0  0  0  0  0  0  0  0  0
   11.0316    7.0375   23.7394 C   0  0  0  0  0  0  0  0  0  0  0  0
   12.3595    7.3814   23.8443 C   0  0  0  0  0  0  0  0  0  0  0  0
   13.1307    6.5312   23.1192 O   0  0  0  0  0  0  0  0  0  0  0  0
  1  2  2  0
  2  3  1  0
  3  4  1  0
  4  5  1  0
  5  6  1  0
  6  7  1  0
  7  8  1  0
  8  9  1  6
  8 10  1  0
 10 11  2  0
 11 12  1  0
 12 13  2  0
 13 14  1  0
  7 15  1  0
 15 16  1  0
  2 17  1  0
 17 18  1  0
 18 19  1  0
 19 20  2  0
 20 21  1  0
 21 22  2  0
 22 23  1  0
 16  4  1  0
 23 19  1  0
 14 10  1  0
M  END
