
     RDKit          3D

 25 27  0  0  0  0  0  0  0  0999 V2000
    6.0243   -5.2472   22.7268 C   0  0  0  0  0  0  0  0  0  0  0  0
    6.0136   -5.5333   24.2086 C   0  0  0  0  0  0  0  0  0  0  0  0
    5.0407   -6.0595   24.7355 O   0  0  0  0  0  0  0  0  0  0  0  0
    7.1684   -5.0961   24.8312 N   0  0  0  0  0  0  0  0  0  0  0  0
    7.5070   -5.1942   26.2074 C   0  0  0  0  0  0  0  0  0  0  0  0
    6.6348   -5.7636   27.1441 C   0  0  0  0  0  0  0  0  0  0  0  0
    7.0244   -5.9357   28.4739 C   0  0  0  0  0  0  0  0  0  0  0  0
    8.2920   -5.5429   28.8836 C   0  0  0  0  0  0  0  0  0  0  0  0
    9.1694   -4.9583   27.9699 C   0  0  0  0  0  0  0  0  0  0  0  0
    8.7885   -4.7615   26.6365 C   0  0  0  0  0  0  0  0  0  0  0  0
    9.6312   -4.0936   25.7230 N   0  0  0  0  0  0  0  0  0  0  0  0
   11.0109   -3.9882   25.7199 C   0  0  0  0  0  0  0  0  0  0  0  0
   11.7905   -4.4373   26.5526 O   0  0  0  0  0  0  0  0  0  0  0  0
   11.5056   -3.1582   24.5222 C   0  0  0  0  0  0  0  0  0  0  0  0
   12.6749   -2.3071   24.9018 N   0  0  0  0  0  0  0  0  0  0  0  0
   13.6549   -2.2463   23.7998 C   0  0  0  0  0  0  0  0  0  0  0  0
   13.5566   -0.9784   22.9553 C   0  0  0  0  0  0  0  0  0  0  0  0
   13.8378    0.2849   23.8019 C   0  0  0  0  0  0  0  0  0  0  0  0
   13.2566    1.4863   23.1637 N   0  0  0  0  0  0  0  0  0  0  0  0
   13.7299    2.7477   23.7508 C   0  0  0  0  0  0  0  0  0  0  0  0
   12.7706    3.7754   23.1776 C   0  0  0  0  0  0  0  0  0  0  0  0
   11.4623    3.0233   22.9942 C   0  0  0  0  0  0  0  0  0  0  0  0
   11.7931    1.5640   23.2814 C   0  0  0  0  0  0  0  0  0  0  0  0
   13.3357    0.0657   25.2473 C   0  0  0  0  0  0  0  0  0  0  0  0
   12.2049   -0.9582   25.3019 C   0  0  0  0  0  0  0  0  0  0  0  0
  1  2  1  0
  2  3  2  0
  2  4  1  0
  4  5  1  0
  5  6  2  0
  6  7  1  0
  7  8  2  0
  8  9  1  0
  9 10  2  0
 10 11  1  0
 11 12  1  0
 12 13  2  0
 12 14  1  0
 14 15  1  0
 15 16  1  0
 16 17  1  0
 17 18  1  0
 18 19  1  0
 19 20  1  0
 20 21  1  0
 21 22  1  0
 22 23  1  0
 18 24  1  0
 24 25  1  0
 10  5  1  0
 25 15  1  0
 23 19  1  0
M  END
