
     RDKit          3D

 25 26  0  0  0  0  0  0  0  0999 V2000
    6.4584   -5.3195   28.6885 C   0  0  0  0  0  0  0  0  0  0  0  0
    7.8148   -5.2240   28.1042 C   0  0  0  0  0  0  0  0  0  0  0  0
    8.9513   -5.0764   28.7544 N   0  0  0  0  0  0  0  0  0  0  0  0
    9.9295   -5.0316   27.7927 C   0  0  0  0  0  0  0  0  0  0  0  0
    9.3846   -5.1543   26.5350 C   0  0  0  0  0  0  0  0  0  0  0  0
    9.9646   -5.1681   25.1703 C   0  0  0  0  0  0  0  0  0  0  0  0
   10.3788   -3.8209   24.7862 N   0  0  0  0  0  0  0  0  0  0  0  0
    9.3286   -2.8857   24.3342 C   0  0  0  0  0  0  0  0  0  0  0  0
    9.3873   -2.5367   22.8415 C   0  0  0  0  0  0  0  0  0  0  0  0
    8.4548   -1.5110   22.5209 O   0  0  0  0  0  0  0  0  0  0  0  0
   11.6434   -3.3998   25.2166 C   0  0  0  0  0  0  0  0  0  0  0  0
   12.3835   -4.1008   25.9099 O   0  0  0  0  0  0  0  0  0  0  0  0
   12.1263   -2.0467   24.8633 C   0  0  0  0  0  0  0  0  0  0  0  0
   11.6550   -0.9185   25.5395 C   0  0  0  0  0  0  0  0  0  0  0  0
   12.1163    0.3496   25.1802 C   0  0  0  0  0  0  0  0  0  0  0  0
   13.0333    0.5018   24.1302 C   0  0  0  0  0  0  0  0  0  0  0  0
   13.5361    1.8755   23.7484 C   0  0  0  0  0  0  0  0  0  0  0  0
   12.3790    2.8355   23.4260 C   0  0  0  0  0  0  0  0  0  0  0  0
   12.8181    4.2947   23.1956 C   0  0  0  0  0  0  0  0  0  0  0  0
   11.7265    5.3021   23.5673 C   0  0  0  0  0  0  0  0  0  0  0  0
   13.2246    4.4903   21.7294 C   0  0  0  0  0  0  0  0  0  0  0  0
   13.9587    4.5774   24.0119 O   0  0  0  0  0  0  0  0  0  0  0  0
   13.4733   -0.6355   23.4370 C   0  0  0  0  0  0  0  0  0  0  0  0
   13.0168   -1.9051   23.7949 C   0  0  0  0  0  0  0  0  0  0  0  0
    8.0322   -5.2773   26.7521 N   0  0  0  0  0  0  0  0  0  0  0  0
  1  2  1  0
  2  3  2  0
  3  4  1  0
  4  5  2  0
  5  6  1  0
  6  7  1  0
  7  8  1  0
  8  9  1  0
  9 10  1  0
  7 11  1  0
 11 12  2  0
 11 13  1  0
 13 14  2  0
 14 15  1  0
 15 16  2  0
 16 17  1  0
 17 18  1  0
 18 19  1  0
 19 20  1  0
 19 21  1  0
 19 22  1  0
 16 23  1  0
 23 24  2  0
  5 25  1  0
 25  2  1  0
 24 13  1  0
M  END
