
     RDKit          3D

 24 26  0  0  0  0  0  0  0  0999 V2000
   14.0898   -3.2081   26.0294 C   0  0  0  0  0  0  0  0  0  0  0  0
   12.8369   -2.7628   25.5238 O   0  0  0  0  0  0  0  0  0  0  0  0
   12.9077   -1.6879   24.5812 C   0  0  0  0  0  0  0  0  0  0  0  0
   14.1932   -1.8187   23.7381 C   0  0  0  0  0  0  0  0  0  0  0  0
   13.0474   -0.3990   25.4073 C   0  0  0  0  0  0  0  0  0  0  0  0
   11.6725   -1.5484   23.6247 C   0  0  0  0  0  0  0  0  0  0  0  0
   11.7986   -1.0419   22.5033 O   0  0  0  0  0  0  0  0  0  0  0  0
   10.4307   -1.9857   24.0403 N   0  0  0  0  0  0  0  0  0  0  0  0
    9.3104   -1.9814   23.1200 C   0  0  0  0  0  0  0  0  0  0  0  0
    8.0796   -2.3317   23.9585 C   0  0  1  0  0  0  0  0  0  0  0  0
    7.0103   -3.0105   23.0877 C   0  0  0  0  0  0  0  0  0  0  0  0
    6.5102   -2.2211   21.8993 C   0  0  0  0  0  0  0  0  0  0  0  0
    6.2160   -2.8914   20.7158 C   0  0  0  0  0  0  0  0  0  0  0  0
    5.7331   -2.1645   19.6327 C   0  0  0  0  0  0  0  0  0  0  0  0
    5.5454   -0.7837   19.7516 C   0  0  0  0  0  0  0  0  0  0  0  0
    5.0628   -0.0077   18.6826 C   0  0  0  0  0  0  0  0  0  0  0  0
    4.8847    1.3662   18.8353 C   0  0  0  0  0  0  0  0  0  0  0  0
    5.1876    1.9667   20.0520 C   0  0  0  0  0  0  0  0  0  0  0  0
    5.6668    1.1901   21.1115 C   0  0  0  0  0  0  0  0  0  0  0  0
    5.8538   -0.1813   20.9880 C   0  0  0  0  0  0  0  0  0  0  0  0
    6.3156   -0.8878   22.0411 N   0  0  0  0  0  0  0  0  0  0  0  0
    8.6803   -3.2264   25.0554 C   0  0  2  0  0  0  0  0  0  0  0  0
    7.9161   -3.2190   26.2495 O   0  0  0  0  0  0  0  0  0  0  0  0
   10.0549   -2.5964   25.3069 C   0  0  0  0  0  0  0  0  0  0  0  0
  1  2  1  0
  2  3  1  0
  3  4  1  0
  3  5  1  0
  3  6  1  0
  6  7  2  0
  6  8  1  0
  8  9  1  0
  9 10  1  0
 10 11  1  6
 11 12  1  0
 12 13  2  0
 13 14  1  0
 14 15  2  0
 15 16  1  0
 16 17  2  0
 17 18  1  0
 18 19  2  0
 19 20  1  0
 20 21  2  0
 10 22  1  0
 22 23  1  1
 22 24  1  0
 24  8  1  0
 21 12  1  0
 20 15  1  0
M  END
