
     RDKit          3D

 22 24  0  0  0  0  0  0  0  0999 V2000
   10.2577   -3.7942   24.6990 C   0  0  0  0  0  0  0  0  0  0  0  0
   11.6069   -3.2260   24.7523 N   0  0  0  0  0  0  0  0  0  0  0  0
   12.3827   -3.8925   25.8083 C   0  0  0  0  0  0  0  0  0  0  0  0
   13.8229   -3.3907   25.8519 C   0  0  0  0  0  0  0  0  0  0  0  0
   13.8753   -1.8751   26.0193 C   0  0  0  0  0  0  0  0  0  0  0  0
   13.0456   -1.1496   24.9309 C   0  0  2  0  0  0  0  0  0  0  0  0
   13.7254   -1.3144   23.5640 C   0  0  0  0  0  0  0  0  0  0  0  0
   14.5402   -2.1515   23.2188 O   0  0  0  0  0  0  0  0  0  0  0  0
   13.2851   -0.4282   22.6425 O   0  0  0  0  0  0  0  0  0  0  0  0
   13.0127    0.3759   25.2415 C   0  0  0  0  0  0  0  0  0  0  0  0
   11.6414    1.0179   25.0451 C   0  0  0  0  0  0  0  0  0  0  0  0
   10.9580    0.4601   23.8889 N   0  0  0  0  0  0  0  0  0  0  0  0
   10.2709    1.2136   22.9276 C   0  0  0  0  0  0  0  0  0  0  0  0
    9.7112    0.6729   21.9746 O   0  0  0  0  0  0  0  0  0  0  0  0
   10.2413    2.6491   23.1008 C   0  0  0  0  0  0  0  0  0  0  0  0
    8.8458    3.3879   23.7682 S   0  0  0  0  0  0  0  0  0  0  0  0
    9.5640    4.9406   23.6944 C   0  0  0  0  0  0  0  0  0  0  0  0
   10.8439    4.8930   23.1852 C   0  0  0  0  0  0  0  0  0  0  0  0
   11.2412    3.5644   22.8555 C   0  0  0  0  0  0  0  0  0  0  0  0
   12.7839    3.2155   22.2035 Cl  0  0  0  0  0  0  0  0  0  0  0  0
   10.6990   -0.9787   23.9201 C   0  0  0  0  0  0  0  0  0  0  0  0
   11.6047   -1.7500   24.9229 C   0  0  1  0  0  0  0  0  0  0  0  0
  1  2  1  0
  2  3  1  0
  3  4  1  0
  4  5  1  0
  5  6  1  0
  6  7  1  6
  7  8  2  0
  7  9  1  0
  6 10  1  0
 10 11  1  0
 11 12  1  0
 12 13  1  0
 13 14  2  0
 13 15  1  0
 15 16  1  0
 16 17  1  0
 17 18  2  0
 18 19  1  0
 19 20  1  0
 12 21  1  0
 22 21  1  6
 22  2  1  0
 22  6  1  0
 19 15  2  0
M  END
