
     RDKit          3D

 25 28  0  0  0  0  0  0  0  0999 V2000
   11.7263    5.4285   22.7889 C   0  0  0  0  0  0  0  0  0  0  0  0
   13.0539    5.7768   22.7057 C   0  0  0  0  0  0  0  0  0  0  0  0
   13.8455    4.7103   22.9886 O   0  0  0  0  0  0  0  0  0  0  0  0
   13.0162    3.6593   23.2563 C   0  0  0  0  0  0  0  0  0  0  0  0
   13.6680    2.3629   23.6002 C   0  0  0  0  0  0  0  0  0  0  0  0
   12.7264    1.3955   24.2010 N   0  0  0  0  0  0  0  0  0  0  0  0
   12.0118    0.6367   23.1603 C   0  0  0  0  0  0  0  0  0  0  0  0
   11.0100   -0.3386   23.7808 C   0  0  0  0  0  0  0  0  0  0  0  0
   11.7045   -1.3012   24.7514 C   0  0  0  0  0  0  0  0  0  0  0  0
   10.6836   -2.1806   25.3382 N   0  0  0  0  0  0  0  0  0  0  0  0
   10.7326   -3.5728   24.8605 C   0  0  1  0  0  0  0  0  0  0  0  0
   11.3727   -4.5183   25.8859 C   0  0  0  0  0  0  0  0  0  0  0  0
   10.3484   -4.8710   26.8320 O   0  0  0  0  0  0  0  0  0  0  0  0
    9.0723   -4.5391   26.2565 C   0  0  0  0  0  0  0  0  0  0  0  0
    9.3308   -4.1820   24.8000 C   0  0  1  0  0  0  0  0  0  0  0  0
    8.2537   -3.3041   24.1582 C   0  0  0  0  0  0  0  0  0  0  0  0
    7.4104   -4.0586   23.1591 C   0  0  0  0  0  0  0  0  0  0  0  0
    7.0615   -3.4806   21.9360 C   0  0  0  0  0  0  0  0  0  0  0  0
    6.2728   -4.2080   21.0575 C   0  0  0  0  0  0  0  0  0  0  0  0
    5.8140   -5.4517   21.3117 N   0  0  0  0  0  0  0  0  0  0  0  0
    6.1625   -5.9925   22.4982 C   0  0  0  0  0  0  0  0  0  0  0  0
    6.9460   -5.3457   23.4418 C   0  0  0  0  0  0  0  0  0  0  0  0
   12.4968   -0.4950   25.7853 C   0  0  0  0  0  0  0  0  0  0  0  0
   13.4498    0.4868   25.1003 C   0  0  0  0  0  0  0  0  0  0  0  0
   11.6998    4.0596   23.1461 C   0  0  0  0  0  0  0  0  0  0  0  0
  1  2  2  0
  2  3  1  0
  3  4  1  0
  4  5  1  0
  5  6  1  0
  6  7  1  0
  7  8  1  0
  8  9  1  0
  9 10  1  0
 11 10  1  1
 11 12  1  0
 12 13  1  0
 13 14  1  0
 14 15  1  0
 15 16  1  1
 16 17  1  0
 17 18  2  0
 18 19  1  0
 19 20  2  0
 20 21  1  0
 21 22  2  0
  9 23  1  0
 23 24  1  0
  4 25  2  0
 25  1  1  0
 24  6  1  0
 15 11  1  0
 22 17  1  0
M  END
