
     RDKit          3D

 23 25  0  0  0  0  0  0  0  0999 V2000
   14.2165    3.7311   24.0012 O   0  0  0  0  0  0  0  0  0  0  0  0
   13.2772    3.3188   23.3254 C   0  0  0  0  0  0  0  0  0  0  0  0
   12.8325    1.8494   23.3533 C   0  0  0  0  0  0  0  0  0  0  0  0
   13.8447    0.9784   24.0040 N   0  0  0  0  0  0  0  0  0  0  0  0
   13.4322    0.5385   25.3474 C   0  0  0  0  0  0  0  0  0  0  0  0
   12.3108   -0.5044   25.3625 C   0  0  0  0  0  0  0  0  0  0  0  0
   12.6425   -1.7142   24.4745 C   0  0  0  0  0  0  0  0  0  0  0  0
   11.4604   -2.6996   24.3733 C   0  0  1  0  0  0  0  0  0  0  0  0
   11.2596   -3.3600   25.6226 O   0  0  0  0  0  0  0  0  0  0  0  0
   10.1493   -2.0582   23.9949 C   0  0  0  0  0  0  0  0  0  0  0  0
    9.2168   -1.4849   24.8399 C   0  0  0  0  0  0  0  0  0  0  0  0
    8.0861   -0.9734   24.1408 C   0  0  0  0  0  0  0  0  0  0  0  0
    8.1903   -1.1657   22.7822 C   0  0  0  0  0  0  0  0  0  0  0  0
    9.6439   -1.9556   22.3555 S   0  0  0  0  0  0  0  0  0  0  0  0
   13.0695   -1.2290   23.0770 C   0  0  0  0  0  0  0  0  0  0  0  0
   14.1786   -0.1797   23.1639 C   0  0  0  0  0  0  0  0  0  0  0  0
   12.4966    4.1276   22.5350 N   0  0  0  0  0  0  0  0  0  0  0  0
   12.7381    5.5371   22.3684 C   0  0  0  0  0  0  0  0  0  0  0  0
   12.0461    6.2664   23.4578 C   0  0  0  0  0  0  0  0  0  0  0  0
   10.8927    6.0208   24.1748 C   0  0  0  0  0  0  0  0  0  0  0  0
   10.7507    7.0960   25.0836 C   0  0  0  0  0  0  0  0  0  0  0  0
   11.8224    7.9288   24.8624 C   0  0  0  0  0  0  0  0  0  0  0  0
   12.6144    7.4351   23.8760 O   0  0  0  0  0  0  0  0  0  0  0  0
  1  2  2  0
  2  3  1  0
  3  4  1  0
  4  5  1  0
  5  6  1  0
  6  7  1  0
  7  8  1  0
  8  9  1  1
  8 10  1  0
 10 11  2  0
 11 12  1  0
 12 13  2  0
 13 14  1  0
  7 15  1  0
 15 16  1  0
  2 17  1  0
 17 18  1  0
 18 19  1  0
 19 20  2  0
 20 21  1  0
 21 22  2  0
 22 23  1  0
 16  4  1  0
 23 19  1  0
 14 10  1  0
M  END
