
     RDKit          3D

 25 27  0  0  0  0  0  0  0  0999 V2000
    4.4579    1.8995   19.4609 C   0  0  0  0  0  0  0  0  0  0  0  0
    5.3598    0.7603   19.2977 N   0  0  0  0  0  0  0  0  0  0  0  0
    5.4820    0.2455   17.9349 C   0  0  0  0  0  0  0  0  0  0  0  0
    6.4469    0.6316   20.1717 C   0  0  0  0  0  0  0  0  0  0  0  0
    7.3204   -0.4678   20.1237 C   0  0  0  0  0  0  0  0  0  0  0  0
    8.3922   -0.6163   21.0163 C   0  0  0  0  0  0  0  0  0  0  0  0
    8.6297    0.3328   22.0094 C   0  0  0  0  0  0  0  0  0  0  0  0
    9.7687    0.1552   22.9839 C   0  0  0  0  0  0  0  0  0  0  0  0
   10.4560    1.4688   23.3909 C   0  0  0  0  0  0  0  0  0  0  0  0
   11.6871    1.2735   24.1587 N   0  0  0  0  0  0  0  0  0  0  0  0
   12.4074    0.1036   23.9594 C   0  0  0  0  0  0  0  0  0  0  0  0
   13.3151   -0.0885   22.9168 C   0  0  0  0  0  0  0  0  0  0  0  0
   14.0101   -1.2372   22.7294 N   0  0  0  0  0  0  0  0  0  0  0  0
   13.7793   -2.1978   23.6583 C   0  0  0  0  0  0  0  0  0  0  0  0
   12.8973   -2.0205   24.7169 C   0  0  0  0  0  0  0  0  0  0  0  0
   12.7203   -3.1382   25.6969 C   0  0  0  0  0  0  0  0  0  0  0  0
   13.6841   -3.4412   26.4058 O   0  0  0  0  0  0  0  0  0  0  0  0
   11.5125   -3.8141   25.8155 N   0  0  0  0  0  0  0  0  0  0  0  0
   10.3802   -3.4483   24.9822 C   0  0  0  0  0  0  0  0  0  0  0  0
    9.4112   -4.6124   25.1199 C   0  0  0  0  0  0  0  0  0  0  0  0
    9.6686   -5.0972   26.5389 C   0  0  0  0  0  0  0  0  0  0  0  0
   11.1756   -4.9301   26.6909 C   0  0  0  0  0  0  0  0  0  0  0  0
   12.2039   -0.8622   24.8766 N   0  0  0  0  0  0  0  0  0  0  0  0
    7.7777    1.4337   22.0834 C   0  0  0  0  0  0  0  0  0  0  0  0
    6.7071    1.5702   21.1861 C   0  0  0  0  0  0  0  0  0  0  0  0
  1  2  1  0
  2  3  1  0
  2  4  1  0
  4  5  2  0
  5  6  1  0
  6  7  2  0
  7  8  1  0
  8  9  1  0
  9 10  1  0
 10 11  1  0
 11 12  2  0
 12 13  1  0
 13 14  2  0
 14 15  1  0
 15 16  1  0
 16 17  2  0
 16 18  1  0
 18 19  1  0
 19 20  1  0
 20 21  1  0
 21 22  1  0
 15 23  2  0
  7 24  1  0
 24 25  2  0
 25  4  1  0
 23 11  1  0
 22 18  1  0
M  END
