
     RDKit          3D

 26 30  0  0  0  0  0  0  0  0999 V2000
   14.2897   -1.9366   23.5656 C   0  0  0  0  0  0  0  0  0  0  0  0
   13.0500   -1.3392   24.1547 C   0  0  0  0  0  0  0  0  0  0  0  0
   13.1889   -0.6195   25.2949 N   0  0  0  0  0  0  0  0  0  0  0  0
   12.0666   -0.1085   25.8385 C   0  0  0  0  0  0  0  0  0  0  0  0
   10.8419   -0.2964   25.2688 C   0  0  0  0  0  0  0  0  0  0  0  0
   10.8027   -1.0520   24.1159 C   0  0  0  0  0  0  0  0  0  0  0  0
   11.8789   -1.5981   23.5353 N   0  0  0  0  0  0  0  0  0  0  0  0
    9.3770   -1.2285   23.6294 C   0  0  1  0  0  0  0  0  0  0  0  0
    8.6870   -0.0727   24.4149 C   0  0  0  0  0  0  0  0  0  0  0  0
    9.4894    0.1274   25.7115 C   0  0  0  0  0  0  0  0  0  0  0  0
    9.2469   -1.0525   22.1099 C   0  0  0  0  0  0  0  0  0  0  0  0
    7.8118   -1.2946   21.6535 C   0  0  0  0  0  0  0  0  0  0  0  0
    7.2967   -2.6606   22.1089 C   0  0  0  0  0  0  0  0  0  0  0  0
    7.4670   -2.8194   23.5510 N   0  0  0  0  0  0  0  0  0  0  0  0
    6.8011   -3.8604   24.2160 C   0  0  0  0  0  0  0  0  0  0  0  0
    7.1714   -4.0963   25.5111 N   0  0  0  0  0  0  0  0  0  0  0  0
    6.5631   -5.0444   26.2548 C   0  0  0  0  0  0  0  0  0  0  0  0
    7.0692   -5.2294   27.6525 C   0  0  0  0  0  0  0  0  0  0  0  0
    5.5799   -5.8603   25.8493 N   0  0  0  0  0  0  0  0  0  0  0  0
    5.2254   -5.6248   24.5769 C   0  0  0  0  0  0  0  0  0  0  0  0
    5.7624   -4.6770   23.7177 C   0  0  0  0  0  0  0  0  0  0  0  0
    5.0399   -4.8813   22.5177 C   0  0  0  0  0  0  0  0  0  0  0  0
    4.1200   -5.8485   22.6020 N   0  0  0  0  0  0  0  0  0  0  0  0
    4.2551   -6.2837   23.8724 N   0  0  0  0  0  0  0  0  0  0  0  0
    3.4125   -7.3521   24.3476 C   0  0  0  0  0  0  0  0  0  0  0  0
    8.8436   -2.6116   24.0533 C   0  0  0  0  0  0  0  0  0  0  0  0
  1  2  1  0
  2  3  2  0
  3  4  1  0
  4  5  2  0
  5  6  1  0
  6  7  2  0
  6  8  1  0
  8  9  1  1
  9 10  1  0
  8 11  1  0
 11 12  1  0
 12 13  1  0
 13 14  1  0
 14 15  1  0
 15 16  2  0
 16 17  1  0
 17 18  1  0
 17 19  2  0
 19 20  1  0
 20 21  2  0
 21 22  1  0
 22 23  2  0
 23 24  1  0
 24 25  1  0
 14 26  1  0
  7  2  1  0
 26  8  1  0
 10  5  1  0
 21 15  1  0
 24 20  1  0
M  END
