
     RDKit          3D

 25 27  0  0  0  0  0  0  0  0999 V2000
   13.2966    2.5656   23.5773 C   0  0  0  0  0  0  0  0  0  0  0  0
   13.5720    1.4146   24.3677 O   0  0  0  0  0  0  0  0  0  0  0  0
   13.9594    0.3018   23.5491 C   0  0  0  0  0  0  0  0  0  0  0  0
   13.2208   -0.9996   23.9820 C   0  0  0  0  0  0  0  0  0  0  0  0
   13.9802   -2.2065   23.4071 C   0  0  0  0  0  0  0  0  0  0  0  0
   13.1991   -1.0507   25.5181 C   0  0  0  0  0  0  0  0  0  0  0  0
   11.7978   -0.9125   23.3783 C   0  0  0  0  0  0  0  0  0  0  0  0
   11.5450   -0.0487   22.5262 O   0  0  0  0  0  0  0  0  0  0  0  0
   10.8033   -1.7945   23.7382 N   0  0  0  0  0  0  0  0  0  0  0  0
    9.4690   -1.6338   23.1772 C   0  0  0  0  0  0  0  0  0  0  0  0
    8.5585   -2.5059   24.0394 C   0  0  1  0  0  0  0  0  0  0  0  0
    7.3069   -2.9366   23.2760 C   0  0  0  0  0  0  0  0  0  0  0  0
    6.6699   -1.7998   22.5155 C   0  0  0  0  0  0  0  0  0  0  0  0
    6.3207   -0.6198   23.1556 C   0  0  0  0  0  0  0  0  0  0  0  0
    5.7407    0.3967   22.4061 C   0  0  0  0  0  0  0  0  0  0  0  0
    5.5383    0.2210   21.0328 C   0  0  0  0  0  0  0  0  0  0  0  0
    4.9853    1.2354   20.2316 C   0  0  0  0  0  0  0  0  0  0  0  0
    4.8140    1.0351   18.8636 C   0  0  0  0  0  0  0  0  0  0  0  0
    5.1720   -0.1836   18.2963 C   0  0  0  0  0  0  0  0  0  0  0  0
    5.7149   -1.1925   19.0981 C   0  0  0  0  0  0  0  0  0  0  0  0
    5.9103   -1.0149   20.4623 C   0  0  0  0  0  0  0  0  0  0  0  0
    6.4466   -2.0131   21.1925 N   0  0  0  0  0  0  0  0  0  0  0  0
    9.4998   -3.6507   24.4348 C   0  0  2  0  0  0  0  0  0  0  0  0
    9.0741   -4.3189   25.6093 O   0  0  0  0  0  0  0  0  0  0  0  0
   10.8219   -2.9127   24.6722 C   0  0  0  0  0  0  0  0  0  0  0  0
  1  2  1  0
  2  3  1  0
  3  4  1  0
  4  5  1  0
  4  6  1  0
  4  7  1  0
  7  8  2  0
  7  9  1  0
  9 10  1  0
 10 11  1  0
 11 12  1  6
 12 13  1  0
 13 14  2  0
 14 15  1  0
 15 16  2  0
 16 17  1  0
 17 18  2  0
 18 19  1  0
 19 20  2  0
 20 21  1  0
 21 22  2  0
 11 23  1  0
 23 24  1  1
 23 25  1  0
 25  9  1  0
 22 13  1  0
 21 16  1  0
M  END
