
     RDKit          3D

 25 27  0  0  0  0  0  0  0  0999 V2000
   12.8105    0.4111   25.4739 C   0  0  0  0  0  0  0  0  0  0  0  0
   13.4945   -0.9008   25.4508 C   0  0  0  0  0  0  0  0  0  0  0  0
   14.4388   -1.2132   26.4019 N   0  0  0  0  0  0  0  0  0  0  0  0
   14.8474   -2.4260   26.1103 C   0  0  0  0  0  0  0  0  0  0  0  0
   14.2032   -2.9187   25.0154 N   0  0  0  0  0  0  0  0  0  0  0  0
   13.3347   -1.9534   24.5691 C   0  0  0  0  0  0  0  0  0  0  0  0
   12.4588   -2.1574   23.3849 C   0  0  0  0  0  0  0  0  0  0  0  0
   11.1552   -2.7336   23.7773 N   0  0  0  0  0  0  0  0  0  0  0  0
   11.3766   -3.6630   24.9164 C   0  0  0  0  0  0  0  0  0  0  0  0
   10.3499   -4.8144   25.0490 C   0  0  0  0  0  0  0  0  0  0  0  0
    9.4049   -4.6273   26.1731 N   0  0  0  0  0  0  0  0  0  0  0  0
    8.2612   -5.5372   26.0823 C   0  0  0  0  0  0  0  0  0  0  0  0
   10.1034   -4.8402   27.4448 C   0  0  0  0  0  0  0  0  0  0  0  0
   10.2177   -1.6389   24.1272 C   0  0  0  0  0  0  0  0  0  0  0  0
    9.2960   -1.2236   22.9985 C   0  0  0  0  0  0  0  0  0  0  0  0
    9.2867    0.1006   22.5435 C   0  0  0  0  0  0  0  0  0  0  0  0
    8.4579    0.4897   21.4846 C   0  0  0  0  0  0  0  0  0  0  0  0
    7.6291   -0.4451   20.8487 C   0  0  0  0  0  0  0  0  0  0  0  0
    6.7812   -0.0487   19.7732 N   0  0  0  0  0  0  0  0  0  0  0  0
    5.9274    1.0349   19.7321 C   0  0  0  0  0  0  0  0  0  0  0  0
    5.3231    1.0040   18.4976 C   0  0  0  0  0  0  0  0  0  0  0  0
    5.7669   -0.0587   17.7684 N   0  0  0  0  0  0  0  0  0  0  0  0
    6.6330   -0.6681   18.5488 C   0  0  0  0  0  0  0  0  0  0  0  0
    7.6521   -1.7760   21.2875 C   0  0  0  0  0  0  0  0  0  0  0  0
    8.4834   -2.1585   22.3463 C   0  0  0  0  0  0  0  0  0  0  0  0
  1  2  1  0
  2  3  1  0
  3  4  2  0
  4  5  1  0
  5  6  1  0
  6  7  1  0
  7  8  1  0
  8  9  1  0
  9 10  1  0
 10 11  1  0
 11 12  1  0
 11 13  1  0
  8 14  1  0
 14 15  1  0
 15 16  2  0
 16 17  1  0
 17 18  2  0
 18 19  1  0
 19 20  1  0
 20 21  2  0
 21 22  1  0
 22 23  2  0
 18 24  1  0
 24 25  2  0
  6  2  2  0
 25 15  1  0
 23 19  1  0
M  END
