
     RDKit          3D

 24 25  0  0  0  0  0  0  0  0999 V2000
   12.9478    3.9138   22.3178 C   0  0  0  0  0  0  0  0  0  0  0  0
   12.0334    2.8717   22.8386 C   0  0  0  0  0  0  0  0  0  0  0  0
   10.6980    2.9017   22.5129 N   0  0  0  0  0  0  0  0  0  0  0  0
   10.1610    1.8757   23.1283 C   0  0  0  0  0  0  0  0  0  0  0  0
   11.0932    1.1734   23.8312 N   0  0  0  0  0  0  0  0  0  0  0  0
   12.3084    1.7884   23.6562 C   0  0  0  0  0  0  0  0  0  0  0  0
   13.5570    1.3227   24.3046 C   0  0  0  0  0  0  0  0  0  0  0  0
   13.5935   -0.1359   24.4082 N   0  0  0  0  0  0  0  0  0  0  0  0
   14.1808   -0.8894   23.2876 C   0  0  0  0  0  0  0  0  0  0  0  0
   13.1705   -1.3223   22.2152 C   0  0  0  0  0  0  0  0  0  0  0  0
   13.8375   -1.6338   20.9865 O   0  0  0  0  0  0  0  0  0  0  0  0
   12.9787   -0.8811   25.4182 C   0  0  0  0  0  0  0  0  0  0  0  0
   12.3716   -0.3100   26.3312 O   0  0  0  0  0  0  0  0  0  0  0  0
   13.1021   -2.4230   25.3996 C   0  0  1  0  0  0  0  0  0  0  0  0
   14.3961   -2.8012   26.1239 C   0  0  0  0  0  0  0  0  0  0  0  0
   12.0588   -3.0773   26.1216 O   0  0  0  0  0  0  0  0  0  0  0  0
   10.9528   -3.5078   25.4462 C   0  0  0  0  0  0  0  0  0  0  0  0
   10.8075   -4.8940   25.4104 C   0  0  0  0  0  0  0  0  0  0  0  0
    9.7357   -5.4828   24.7386 C   0  0  0  0  0  0  0  0  0  0  0  0
    8.7829   -4.6918   24.0842 C   0  0  0  0  0  0  0  0  0  0  0  0
    7.6431   -5.3584   23.3651 C   0  0  0  0  0  0  0  0  0  0  0  0
    8.9065   -3.2896   24.1366 C   0  0  0  0  0  0  0  0  0  0  0  0
    7.9212   -2.3878   23.4433 C   0  0  0  0  0  0  0  0  0  0  0  0
   10.0013   -2.7119   24.8103 C   0  0  0  0  0  0  0  0  0  0  0  0
  1  2  1  0
  2  3  1  0
  3  4  2  0
  4  5  1  0
  5  6  1  0
  6  7  1  0
  7  8  1  0
  8  9  1  0
  9 10  1  0
 10 11  1  0
  8 12  1  0
 12 13  2  0
 12 14  1  0
 14 15  1  1
 14 16  1  0
 16 17  1  0
 17 18  2  0
 18 19  1  0
 19 20  2  0
 20 21  1  0
 20 22  1  0
 22 23  1  0
 22 24  2  0
  6  2  2  0
 24 17  1  0
M  END
