
     RDKit          3D

 25 27  0  0  0  0  0  0  0  0999 V2000
    1.2897    4.9616   21.3767 C   0  0  0  0  0  0  0  0  0  0  0  0
    1.8741    3.7523   20.7560 C   0  0  0  0  0  0  0  0  0  0  0  0
    3.1669    3.5857   20.2088 C   0  0  0  0  0  0  0  0  0  0  0  0
    3.1932    2.2786   19.7852 C   0  0  0  0  0  0  0  0  0  0  0  0
    4.1848    1.3980   19.1165 C   0  0  0  0  0  0  0  0  0  0  0  0
    5.1480    0.7019   20.0790 C   0  0  2  0  0  0  0  0  0  0  0  0
    6.1813    1.6698   20.6466 C   0  0  0  0  0  0  0  0  0  0  0  0
    7.1325    0.7359   21.2756 N   0  0  0  0  0  0  0  0  0  0  0  0
    8.3853    1.4108   21.6652 C   0  0  0  0  0  0  0  0  0  0  0  0
    9.0591    0.6358   22.8034 C   0  0  0  0  0  0  0  0  0  0  0  0
    8.4838    0.3447   23.8442 O   0  0  0  0  0  0  0  0  0  0  0  0
   10.3802    0.3369   22.5333 N   0  0  0  0  0  0  0  0  0  0  0  0
   11.2273   -0.3964   23.4703 C   0  0  0  0  0  0  0  0  0  0  0  0
   12.7053   -0.1620   23.1208 C   0  0  0  0  0  0  0  0  0  0  0  0
   13.5166    0.4317   24.2703 C   0  0  0  0  0  0  0  0  0  0  0  0
   13.3657   -0.2175   25.6487 C   0  0  0  0  0  0  0  0  0  0  0  0
   13.4968   -1.7397   25.6917 C   0  0  0  0  0  0  0  0  0  0  0  0
   12.1703   -2.5068   25.5724 C   0  0  0  0  0  0  0  0  0  0  0  0
   11.7646   -2.8704   24.1465 C   0  0  0  0  0  0  0  0  0  0  0  0
   10.8302   -1.8818   23.4465 C   0  0  0  0  0  0  0  0  0  0  0  0
    7.3629   -0.2945   20.2530 C   0  0  0  0  0  0  0  0  0  0  0  0
    6.0219   -0.4193   19.5002 C   0  0  2  0  0  0  0  0  0  0  0  0
    6.2284   -0.2498   18.0979 O   0  0  0  0  0  0  0  0  0  0  0  0
    1.9851    1.7073   20.0488 O   0  0  0  0  0  0  0  0  0  0  0  0
    1.1574    2.6295   20.6624 N   0  0  0  0  0  0  0  0  0  0  0  0
  1  2  1  0
  2  3  1  0
  3  4  2  0
  4  5  1  0
  6  5  1  6
  6  7  1  0
  7  8  1  0
  8  9  1  0
  9 10  1  0
 10 11  2  0
 10 12  1  0
 12 13  1  0
 13 14  1  0
 14 15  1  0
 15 16  1  0
 16 17  1  0
 17 18  1  0
 18 19  1  0
 19 20  1  0
  8 21  1  0
 21 22  1  0
 22 23  1  6
  4 24  1  0
 24 25  1  0
 25  2  2  0
 22  6  1  0
 20 13  1  0
M  END
