
     RDKit          3D

 34 36  0  0  0  0  0  0  0  0999 V2000
    6.2828   -1.3409   22.6627 C   0  0  0  0  0  0  0  0  0  0  0  0
    7.4817   -0.5999   22.4744 O   0  0  0  0  0  0  0  0  0  0  0  0
    7.5193    0.6737   22.9780 C   0  0  0  0  0  0  0  0  0  0  0  0
    6.4569    1.3041   23.6252 C   0  0  0  0  0  0  0  0  0  0  0  0
    6.6020    2.6114   24.1122 C   0  0  0  0  0  0  0  0  0  0  0  0
    5.4391    3.2290   24.8047 C   0  0  0  0  0  0  0  0  0  0  0  0
    4.2935    2.9326   24.4902 O   0  0  0  0  0  0  0  0  0  0  0  0
    5.7204    4.1105   25.8212 N   0  0  0  0  0  0  0  0  0  0  0  0
    4.6301    4.7555   26.5462 C   0  0  2  0  0  0  0  0  0  0  0  0
    3.8888    3.8816   27.5977 C   0  0  0  0  0  0  0  0  0  0  0  0
    4.7508    3.0987   28.2919 F   0  0  0  0  0  0  0  0  0  0  0  0
    2.9786    3.0566   27.0293 F   0  0  0  0  0  0  0  0  0  0  0  0
    3.2124    4.6364   28.4982 F   0  0  0  0  0  0  0  0  0  0  0  0
    3.7741    5.5070   25.6670 N   0  0  0  0  0  0  0  0  0  0  0  0
    3.6252    6.8067   26.0739 C   0  0  0  0  0  0  0  0  0  0  0  0
    2.7963    7.5696   25.6091 O   0  0  0  0  0  0  0  0  0  0  0  0
    4.5476    7.0717   27.0462 N   0  0  0  0  0  0  0  0  0  0  0  0
    4.6975    8.3962   27.6551 C   0  0  2  0  0  0  0  0  0  0  0  0
    6.0206    8.5852   28.4125 C   0  0  0  0  0  0  0  0  0  0  0  0
    6.1789   10.0229   28.9026 C   0  0  0  0  0  0  0  0  0  0  0  0
    4.9828   10.4790   29.7360 C   0  0  0  0  0  0  0  0  0  0  0  0
    3.6315   10.2733   29.0293 C   0  0  1  0  0  0  0  0  0  0  0  0
    3.4314   11.3062   27.9121 C   0  0  0  0  0  0  0  0  0  0  0  0
    3.4680    8.8206   28.5032 C   0  0  2  0  0  0  0  0  0  0  0  0
    3.1800    7.8710   29.6758 C   0  0  0  0  0  0  0  0  0  0  0  0
    5.2223    5.9208   27.3560 C   0  0  0  0  0  0  0  0  0  0  0  0
    6.1694    5.8034   28.1252 O   0  0  0  0  0  0  0  0  0  0  0  0
    7.8037    3.3111   23.9292 C   0  0  0  0  0  0  0  0  0  0  0  0
    8.8774    2.6937   23.2856 C   0  0  0  0  0  0  0  0  0  0  0  0
   10.0980    3.2781   23.0665 O   0  0  0  0  0  0  0  0  0  0  0  0
   10.1354    4.6918   22.9235 C   0  0  0  0  0  0  0  0  0  0  0  0
    8.7338    1.3678   22.8378 C   0  0  0  0  0  0  0  0  0  0  0  0
    9.7824    0.7750   22.1689 O   0  0  0  0  0  0  0  0  0  0  0  0
   10.1633   -0.4287   22.8337 C   0  0  0  0  0  0  0  0  0  0  0  0
  1  2  1  0
  2  3  1  0
  3  4  2  0
  4  5  1  0
  5  6  1  0
  6  7  2  0
  6  8  1  0
  9  8  1  6
  9 10  1  0
 10 11  1  0
 10 12  1  0
 10 13  1  0
  9 14  1  0
 14 15  1  0
 15 16  2  0
 15 17  1  0
 18 17  1  1
 18 19  1  0
 19 20  1  0
 20 21  1  0
 21 22  1  0
 22 23  1  6
 22 24  1  0
 24 25  1  1
 17 26  1  0
 26 27  2  0
  5 28  2  0
 28 29  1  0
 29 30  1  0
 30 31  1  0
 29 32  2  0
 32 33  1  0
 33 34  1  0
 32  3  1  0
 26  9  1  0
 24 18  1  0
M  END
