
     RDKit          3D

 15 15  0  0  0  0  0  0  0  0999 V2000
   13.9835   -0.1897   25.7749 O   0  0  0  0  0  0  0  0  0  0  0  0
   13.0114   -0.5154   25.0870 C   0  0  0  0  0  0  0  0  0  0  0  0
   13.0022   -1.7556   24.2204 C   0  0  0  0  0  0  0  0  0  0  0  0
   14.4319   -2.7646   24.5811 Cl  0  0  0  0  0  0  0  0  0  0  0  0
   13.0907   -1.2560   22.5106 Cl  0  0  0  0  0  0  0  0  0  0  0  0
   11.7365   -2.5595   24.4237 C   0  0  0  0  0  0  0  0  0  0  0  0
   11.7441   -3.7799   24.6097 O   0  0  0  0  0  0  0  0  0  0  0  0
   10.4383   -1.7800   24.3513 C   0  0  0  0  0  0  0  0  0  0  0  0
    9.5946   -2.3321   22.8724 Cl  0  0  0  0  0  0  0  0  0  0  0  0
    9.4571   -2.1925   25.7843 Cl  0  0  0  0  0  0  0  0  0  0  0  0
   10.5671   -0.2673   24.3144 C   0  0  0  0  0  0  0  0  0  0  0  0
    9.6958    0.4428   23.8008 O   0  0  0  0  0  0  0  0  0  0  0  0
   11.7582    0.3360   25.0379 C   0  0  0  0  0  0  0  0  0  0  0  0
   11.2439    0.6722   26.7140 Cl  0  0  0  0  0  0  0  0  0  0  0  0
   12.2152    1.8694   24.2360 Cl  0  0  0  0  0  0  0  0  0  0  0  0
  1  2  2  0
  2  3  1  0
  3  4  1  0
  3  5  1  0
  3  6  1  0
  6  7  2  0
  6  8  1  0
  8  9  1  0
  8 10  1  0
  8 11  1  0
 11 12  2  0
 11 13  1  0
 13 14  1  0
 13 15  1  0
 13  2  1  0
M  END
