
     RDKit          3D

 24 25  0  0  0  0  0  0  0  0999 V2000
    2.1424    9.9571   30.3805 C   0  0  0  0  0  0  0  0  0  0  0  0
    1.6438    8.9913   29.4655 O   0  0  0  0  0  0  0  0  0  0  0  0
    1.3552    7.7441   29.9561 C   0  0  0  0  0  0  0  0  0  0  0  0
    0.1761    7.4035   30.6295 C   0  0  0  0  0  0  0  0  0  0  0  0
   -0.0280    6.0994   31.0936 C   0  0  0  0  0  0  0  0  0  0  0  0
    0.9505    5.1265   30.9017 C   0  0  0  0  0  0  0  0  0  0  0  0
    2.1417    5.4615   30.2508 C   0  0  0  0  0  0  0  0  0  0  0  0
    3.1404    4.3929   30.0513 C   0  0  0  0  0  0  0  0  0  0  0  0
    4.0722    4.3471   30.8536 O   0  0  0  0  0  0  0  0  0  0  0  0
    3.0086    3.5226   28.9671 N   0  0  0  0  0  0  0  0  0  0  0  0
    3.9444    2.4332   28.6833 C   0  0  0  0  0  0  0  0  0  0  0  0
    3.6068    1.2062   29.5229 C   0  0  0  0  0  0  0  0  0  0  0  0
    2.5105    0.3088   28.9344 C   0  0  0  0  0  0  0  0  0  0  0  0
    1.3502    0.9327   28.2932 N   0  0  0  0  0  0  0  0  0  0  0  0
    0.2649   -0.0307   28.0324 C   0  0  0  0  0  0  0  0  0  0  0  0
   -0.1945   -0.1471   26.5755 C   0  0  0  0  0  0  0  0  0  0  0  0
    0.1917    1.0810   25.7996 C   0  0  0  0  0  0  0  0  0  0  0  0
    1.2221    1.7254   25.8875 O   0  0  0  0  0  0  0  0  0  0  0  0
   -0.7665    1.4417   24.9221 O   0  0  0  0  0  0  0  0  0  0  0  0
    0.8811    2.1963   28.8795 C   0  0  0  0  0  0  0  0  0  0  0  0
    1.6895    3.4001   28.3571 C   0  0  0  0  0  0  0  0  0  0  0  0
    2.3306    6.7541   29.7449 C   0  0  0  0  0  0  0  0  0  0  0  0
    3.5013    7.0763   29.1003 O   0  0  0  0  0  0  0  0  0  0  0  0
    3.5099    6.5079   27.7902 C   0  0  0  0  0  0  0  0  0  0  0  0
  1  2  1  0
  2  3  1  0
  3  4  2  0
  4  5  1  0
  5  6  2  0
  6  7  1  0
  7  8  1  0
  8  9  2  0
  8 10  1  0
 10 11  1  0
 11 12  1  0
 12 13  1  0
 13 14  1  0
 14 15  1  0
 15 16  1  0
 16 17  1  0
 17 18  2  0
 17 19  1  0
 14 20  1  0
 20 21  1  0
  7 22  2  0
 22 23  1  0
 23 24  1  0
 22  3  1  0
 21 10  1  0
M  END
