
     RDKit          3D

 25 27  0  0  0  0  0  0  0  0999 V2000
    8.1459   -2.5772   27.8425 C   0  0  0  0  0  0  0  0  0  0  0  0
    7.4125   -1.3898   28.1065 O   0  0  0  0  0  0  0  0  0  0  0  0
    6.8173   -0.7642   27.0415 C   0  0  0  0  0  0  0  0  0  0  0  0
    5.4810   -0.9294   26.6680 C   0  0  0  0  0  0  0  0  0  0  0  0
    4.9732   -0.2675   25.5476 C   0  0  0  0  0  0  0  0  0  0  0  0
    5.7957    0.5622   24.7868 C   0  0  0  0  0  0  0  0  0  0  0  0
    7.1397    0.7544   25.1407 C   0  0  0  0  0  0  0  0  0  0  0  0
    8.0203    1.6584   24.3028 C   0  0  0  0  0  0  0  0  0  0  0  0
    9.0245    2.4013   25.0840 N   0  0  0  0  0  0  0  0  0  0  0  0
    9.5922    3.5214   24.3227 C   0  0  0  0  0  0  0  0  0  0  0  0
    8.6397    4.7097   24.1763 C   0  0  0  0  0  0  0  0  0  0  0  0
    8.1221    5.1835   25.5320 C   0  0  0  0  0  0  0  0  0  0  0  0
    7.5453    4.0161   26.3446 C   0  0  2  0  0  0  0  0  0  0  0  0
    7.1430    4.4990   27.7309 C   0  0  0  0  0  0  0  0  0  0  0  0
    6.3069    3.8433   28.4695 N   0  0  0  0  0  0  0  0  0  0  0  0
    6.0149    4.3491   29.7141 C   0  0  0  0  0  0  0  0  0  0  0  0
    5.0329    3.5436   30.5164 C   0  0  0  0  0  0  0  0  0  0  0  0
    6.5508    5.4751   30.2050 C   0  0  0  0  0  0  0  0  0  0  0  0
    7.5033    6.2103   29.3646 C   0  0  0  0  0  0  0  0  0  0  0  0
    8.0302    7.2488   29.7429 O   0  0  0  0  0  0  0  0  0  0  0  0
    7.7496    5.6552   28.1456 N   0  0  0  0  0  0  0  0  0  0  0  0
    8.5566    2.8588   26.4045 C   0  0  0  0  0  0  0  0  0  0  0  0
    7.6326    0.0975   26.2832 C   0  0  0  0  0  0  0  0  0  0  0  0
    8.9631    0.2561   26.5982 O   0  0  0  0  0  0  0  0  0  0  0  0
    9.7838   -0.1840   25.5152 C   0  0  0  0  0  0  0  0  0  0  0  0
  1  2  1  0
  2  3  1  0
  3  4  2  0
  4  5  1  0
  5  6  2  0
  6  7  1  0
  7  8  1  0
  8  9  1  0
  9 10  1  0
 10 11  1  0
 11 12  1  0
 12 13  1  0
 13 14  1  1
 14 15  2  0
 15 16  1  0
 16 17  1  0
 16 18  2  0
 18 19  1  0
 19 20  2  0
 19 21  1  0
 13 22  1  0
  7 23  2  0
 23 24  1  0
 24 25  1  0
 23  3  1  0
 22  9  1  0
 21 14  1  0
M  END
