
     RDKit          3D

 28 31  0  0  0  0  0  0  0  0999 V2000
   10.1949   -4.9514   28.1801 C   0  0  0  0  0  0  0  0  0  0  0  0
   10.4520   -4.5946   26.7103 C   0  0  0  0  0  0  0  0  0  0  0  0
   10.6404   -5.8754   25.8878 C   0  0  0  0  0  0  0  0  0  0  0  0
    9.4334   -3.6554   26.2038 N   0  0  0  0  0  0  0  0  0  0  0  0
    8.1751   -3.7104   26.9616 C   0  0  0  0  0  0  0  0  0  0  0  0
    7.0545   -2.9665   26.2156 C   0  0  0  0  0  0  0  0  0  0  0  0
    7.4866   -1.6098   25.7183 C   0  0  0  0  0  0  0  0  0  0  0  0
    6.4763   -0.7474   25.3626 N   0  0  0  0  0  0  0  0  0  0  0  0
    6.8218    0.4228   24.9232 C   0  0  0  0  0  0  0  0  0  0  0  0
    5.7849    1.4701   24.4837 C   0  0  1  0  0  0  0  0  0  0  0  0
    6.0045    2.8638   25.0745 C   0  0  0  0  0  0  0  0  0  0  0  0
    6.9127    3.5408   24.0543 C   0  0  0  0  0  0  0  0  0  0  0  0
    6.3951    3.0077   22.7274 C   0  0  0  0  0  0  0  0  0  0  0  0
    5.8817    1.6792   23.0350 N   0  0  0  0  0  0  0  0  0  0  0  0
    5.2747    0.8047   22.1549 C   0  0  0  0  0  0  0  0  0  0  0  0
    4.8486   -0.2941   22.5085 O   0  0  0  0  0  0  0  0  0  0  0  0
    5.1028    1.2039   20.7506 C   0  0  0  0  0  0  0  0  0  0  0  0
    4.4411    2.4026   20.4649 C   0  0  0  0  0  0  0  0  0  0  0  0
    4.2434    2.7818   19.1355 C   0  0  0  0  0  0  0  0  0  0  0  0
    4.6917    1.9596   18.0987 C   0  0  0  0  0  0  0  0  0  0  0  0
    5.3304    0.7524   18.3888 C   0  0  0  0  0  0  0  0  0  0  0  0
    5.5265    0.3761   19.7147 C   0  0  0  0  0  0  0  0  0  0  0  0
    6.1247   -0.7961   19.9711 F   0  0  0  0  0  0  0  0  0  0  0  0
    8.1309    0.8181   24.8126 N   0  0  0  0  0  0  0  0  0  0  0  0
    9.1726    0.0390   25.2176 C   0  0  0  0  0  0  0  0  0  0  0  0
   10.3353    0.4269   25.2200 O   0  0  0  0  0  0  0  0  0  0  0  0
    8.7950   -1.3122   25.6713 C   0  0  0  0  0  0  0  0  0  0  0  0
    9.8926   -2.2583   26.0569 C   0  0  0  0  0  0  0  0  0  0  0  0
  1  2  1  0
  2  3  1  0
  2  4  1  0
  4  5  1  0
  5  6  1  0
  6  7  1  0
  7  8  1  0
  8  9  2  0
 10  9  1  1
 10 11  1  0
 11 12  1  0
 12 13  1  0
 13 14  1  0
 14 15  1  0
 15 16  2  0
 15 17  1  0
 17 18  2  0
 18 19  1  0
 19 20  2  0
 20 21  1  0
 21 22  2  0
 22 23  1  0
  9 24  1  0
 24 25  1  0
 25 26  2  0
 25 27  1  0
 27 28  1  0
 28  4  1  0
 27  7  2  0
 14 10  1  0
 22 17  1  0
M  END
