
     RDKit          3D

 25 26  0  0  0  0  0  0  0  0999 V2000
    3.7290   -1.9153   27.7945 C   0  0  0  0  0  0  0  0  0  0  0  0
    3.2747   -1.9855   29.1526 O   0  0  0  0  0  0  0  0  0  0  0  0
    3.4763   -3.2483   29.6574 C   0  0  0  0  0  0  0  0  0  0  0  0
    2.3758   -3.9262   30.2157 C   0  0  0  0  0  0  0  0  0  0  0  0
    1.0097   -3.3023   30.2803 C   0  0  0  0  0  0  0  0  0  0  0  0
    2.5732   -5.2020   30.7627 C   0  0  0  0  0  0  0  0  0  0  0  0
    3.8298   -5.8027   30.7126 C   0  0  0  0  0  0  0  0  0  0  0  0
    4.0720   -7.5260   31.4516 Br  0  0  0  0  0  0  0  0  0  0  0  0
    4.9040   -5.1517   30.1116 C   0  0  0  0  0  0  0  0  0  0  0  0
    4.7354   -3.8722   29.5600 C   0  0  0  0  0  0  0  0  0  0  0  0
    5.9300   -3.2598   28.8933 C   0  0  0  0  0  0  0  0  0  0  0  0
    6.4233   -2.2538   29.3914 O   0  0  0  0  0  0  0  0  0  0  0  0
    6.3943   -3.9104   27.7702 N   0  0  0  0  0  0  0  0  0  0  0  0
    7.4879   -3.5729   26.9428 C   0  0  0  0  0  0  0  0  0  0  0  0
    8.7889   -4.0413   27.1429 C   0  0  0  0  0  0  0  0  0  0  0  0
    9.8295   -3.6242   26.2979 C   0  0  0  0  0  0  0  0  0  0  0  0
   11.2250   -4.0940   26.4760 C   0  0  0  0  0  0  0  0  0  0  0  0
   12.1795   -3.7401   25.8089 O   0  0  0  0  0  0  0  0  0  0  0  0
   11.3571   -4.9823   27.4732 O   0  0  0  0  0  0  0  0  0  0  0  0
    9.5723   -2.7268   25.2549 C   0  0  0  0  0  0  0  0  0  0  0  0
    8.2772   -2.2589   25.0451 C   0  0  0  0  0  0  0  0  0  0  0  0
    8.0138   -1.1193   23.7752 Cl  0  0  0  0  0  0  0  0  0  0  0  0
    7.2324   -2.7023   25.8652 C   0  0  0  0  0  0  0  0  0  0  0  0
    5.9473   -2.2368   25.6879 O   0  0  0  0  0  0  0  0  0  0  0  0
    5.1379   -3.2396   25.0661 C   0  0  0  0  0  0  0  0  0  0  0  0
  1  2  1  0
  2  3  1  0
  3  4  2  0
  4  5  1  0
  4  6  1  0
  6  7  2  0
  7  8  1  0
  7  9  1  0
  9 10  2  0
 10 11  1  0
 11 12  2  0
 11 13  1  0
 13 14  1  0
 14 15  2  0
 15 16  1  0
 16 17  1  0
 17 18  2  0
 17 19  1  0
 16 20  2  0
 20 21  1  0
 21 22  1  0
 21 23  2  0
 23 24  1  0
 24 25  1  0
 10  3  1  0
 23 14  1  0
M  END
