
     RDKit          3D

 33 37  0  0  0  0  0  0  0  0999 V2000
    9.9681    1.5923   27.9001 C   0  0  0  0  0  0  0  0  0  0  0  0
    9.3931    2.6594   27.1575 O   0  0  0  0  0  0  0  0  0  0  0  0
    8.2593    3.2379   27.6667 C   0  0  0  0  0  0  0  0  0  0  0  0
    7.0217    3.2668   27.0216 C   0  0  0  0  0  0  0  0  0  0  0  0
    5.9071    3.8900   27.6167 C   0  0  0  0  0  0  0  0  0  0  0  0
    4.5320    3.9036   26.9279 C   0  0  2  0  0  0  0  0  0  0  0  0
    4.1237    5.3520   26.7003 C   0  0  0  0  0  0  0  0  0  0  0  0
    5.0243    6.7306   27.4299 S   0  0  0  0  0  0  0  0  0  0  0  0
    3.9157    7.8191   26.6712 C   0  0  0  0  0  0  0  0  0  0  0  0
    3.7514    9.1095   26.6251 N   0  0  0  0  0  0  0  0  0  0  0  0
    2.6403    9.2065   25.8115 C   0  0  0  0  0  0  0  0  0  0  0  0
    2.0516   10.5118   25.4450 C   0  0  0  0  0  0  0  0  0  0  0  0
    2.1265    8.0386   25.3746 N   0  0  0  0  0  0  0  0  0  0  0  0
    2.9734    7.1589   25.9455 N   0  0  0  0  0  0  0  0  0  0  0  0
    3.0795    5.7778   25.9561 C   0  0  0  0  0  0  0  0  0  0  0  0
    2.2013    4.9705   25.2703 O   0  0  0  0  0  0  0  0  0  0  0  0
    3.5073    3.0770   27.6311 N   0  0  0  0  0  0  0  0  0  0  0  0
    2.3456    2.7927   26.7612 C   0  0  0  0  0  0  0  0  0  0  0  0
    1.2166    2.1269   27.5599 C   0  0  0  0  0  0  0  0  0  0  0  0
    1.6992    0.9482   28.3603 C   0  0  0  0  0  0  0  0  0  0  0  0
    0.7841    0.0245   28.8822 C   0  0  0  0  0  0  0  0  0  0  0  0
    1.2297   -1.0503   29.6504 C   0  0  0  0  0  0  0  0  0  0  0  0
    2.5897   -1.2059   29.9074 C   0  0  0  0  0  0  0  0  0  0  0  0
    3.5056   -0.2839   29.3999 C   0  0  0  0  0  0  0  0  0  0  0  0
    3.0690    0.8075   28.6338 C   0  0  0  0  0  0  0  0  0  0  0  0
    4.0835    1.7759   28.0585 C   0  0  0  0  0  0  0  0  0  0  0  0
    6.0486    4.4719   28.8910 C   0  0  0  0  0  0  0  0  0  0  0  0
    7.2779    4.4535   29.5540 C   0  0  0  0  0  0  0  0  0  0  0  0
    7.5073    5.0019   30.7897 O   0  0  0  0  0  0  0  0  0  0  0  0
    8.3230    6.1634   30.8474 C   0  0  0  0  0  0  0  0  0  0  0  0
    8.3810    3.8540   28.9231 C   0  0  0  0  0  0  0  0  0  0  0  0
    9.5866    3.7996   29.5895 O   0  0  0  0  0  0  0  0  0  0  0  0
    9.3988    3.2139   30.8763 C   0  0  0  0  0  0  0  0  0  0  0  0
  1  2  1  0
  2  3  1  0
  3  4  2  0
  4  5  1  0
  6  5  1  1
  6  7  1  0
  7  8  1  0
  8  9  1  0
  9 10  2  0
 10 11  1  0
 11 12  1  0
 11 13  2  0
 13 14  1  0
 14 15  1  0
 15 16  1  0
  6 17  1  0
 17 18  1  0
 18 19  1  0
 19 20  1  0
 20 21  2  0
 21 22  1  0
 22 23  2  0
 23 24  1  0
 24 25  2  0
 25 26  1  0
  5 27  2  0
 27 28  1  0
 28 29  1  0
 29 30  1  0
 28 31  2  0
 31 32  1  0
 32 33  1  0
 31  3  1  0
 15  7  2  0
 26 17  1  0
 14  9  1  0
 25 20  1  0
M  END
