
     RDKit          3D

 30 33  0  0  0  0  0  0  0  0999 V2000
    6.2543   -3.0403   25.8749 C   0  0  0  0  0  0  0  0  0  0  0  0
    6.6903   -1.9482   26.6721 O   0  0  0  0  0  0  0  0  0  0  0  0
    5.9256   -0.8104   26.6601 C   0  0  0  0  0  0  0  0  0  0  0  0
    4.8187   -0.5846   27.4833 C   0  0  0  0  0  0  0  0  0  0  0  0
    4.0885    0.6148   27.4003 C   0  0  0  0  0  0  0  0  0  0  0  0
    2.8808    0.8736   28.2871 C   0  0  1  0  0  0  0  0  0  0  0  0
    2.8393    2.3232   28.7869 C   0  0  0  0  0  0  0  0  0  0  0  0
    1.6435    2.5647   29.6813 C   0  0  0  0  0  0  0  0  0  0  0  0
    1.6394    3.4367   30.5444 O   0  0  0  0  0  0  0  0  0  0  0  0
    0.4379    1.7539   29.4537 C   0  0  0  0  0  0  0  0  0  0  0  0
   -0.7030    1.9224   30.2000 C   0  0  0  0  0  0  0  0  0  0  0  0
   -1.8228    1.1916   30.0125 N   0  0  0  0  0  0  0  0  0  0  0  0
   -1.7968    0.2720   29.0360 C   0  0  0  0  0  0  0  0  0  0  0  0
   -2.9089   -0.5064   28.7727 N   0  0  0  0  0  0  0  0  0  0  0  0
   -2.8965   -1.2471   27.5155 C   0  0  0  0  0  0  0  0  0  0  0  0
   -2.2746   -2.6413   27.6789 C   0  0  1  0  0  0  0  0  0  0  0  0
   -2.2088   -3.4185   26.3742 C   0  0  0  0  0  0  0  0  0  0  0  0
   -1.0664   -4.3653   26.6441 C   0  0  0  0  0  0  0  0  0  0  0  0
   -0.1118   -3.4910   27.4291 C   0  0  0  0  0  0  0  0  0  0  0  0
   -0.9084   -2.5318   28.1404 O   0  0  0  0  0  0  0  0  0  0  0  0
   -0.7236    0.0361   28.2657 N   0  0  0  0  0  0  0  0  0  0  0  0
    0.3866    0.7768   28.4833 C   0  0  0  0  0  0  0  0  0  0  0  0
    1.5635    0.5150   27.5829 C   0  0  0  0  0  0  0  0  0  0  0  0
    4.4900    1.5957   26.4754 C   0  0  0  0  0  0  0  0  0  0  0  0
    5.5937    1.3907   25.6428 C   0  0  0  0  0  0  0  0  0  0  0  0
    6.0513    2.2894   24.7141 O   0  0  0  0  0  0  0  0  0  0  0  0
    5.1104    3.2029   24.1680 C   0  0  0  0  0  0  0  0  0  0  0  0
    6.2906    0.1748   25.7286 C   0  0  0  0  0  0  0  0  0  0  0  0
    7.4038   -0.0220   24.9400 O   0  0  0  0  0  0  0  0  0  0  0  0
    8.5810    0.2931   25.6812 C   0  0  0  0  0  0  0  0  0  0  0  0
  1  2  1  0
  2  3  1  0
  3  4  2  0
  4  5  1  0
  6  5  1  6
  6  7  1  0
  7  8  1  0
  8  9  2  0
  8 10  1  0
 10 11  2  0
 11 12  1  0
 12 13  2  0
 13 14  1  0
 14 15  1  0
 16 15  1  6
 16 17  1  0
 17 18  1  0
 18 19  1  0
 19 20  1  0
 13 21  1  0
 21 22  2  0
 22 23  1  0
  5 24  2  0
 24 25  1  0
 25 26  1  0
 26 27  1  0
 25 28  2  0
 28 29  1  0
 29 30  1  0
 28  3  1  0
 23  6  1  0
 22 10  1  0
 20 16  1  0
M  END
