
     RDKit          3D

 23 25  0  0  0  0  0  0  0  0999 V2000
    8.5135    0.8904   25.4246 O   0  0  0  0  0  0  0  0  0  0  0  0
    9.5861    0.7290   24.8487 C   0  0  0  0  0  0  0  0  0  0  0  0
   10.2604    1.9257   24.3516 C   0  0  0  0  0  0  0  0  0  0  0  0
    9.5759    2.8150   23.5316 C   0  0  0  0  0  0  0  0  0  0  0  0
    8.3216    2.5561   23.1352 F   0  0  0  0  0  0  0  0  0  0  0  0
   10.1961    3.9799   23.0837 C   0  0  0  0  0  0  0  0  0  0  0  0
   11.5088    4.2599   23.4703 C   0  0  0  0  0  0  0  0  0  0  0  0
   12.1935    3.3712   24.3026 C   0  0  0  0  0  0  0  0  0  0  0  0
   11.5633    2.2090   24.7439 C   0  0  0  0  0  0  0  0  0  0  0  0
   12.2423    1.3651   25.5332 F   0  0  0  0  0  0  0  0  0  0  0  0
   10.1729   -0.5174   24.6349 N   0  0  0  0  0  0  0  0  0  0  0  0
   11.4441   -0.7453   23.9353 C   0  0  0  0  0  0  0  0  0  0  0  0
   11.3054   -0.9829   22.4288 C   0  0  0  0  0  0  0  0  0  0  0  0
   10.3004   -2.4426   21.9892 S   0  0  0  0  0  0  0  0  0  0  0  0
    8.6394   -1.8001   22.4588 C   0  0  1  0  0  0  0  0  0  0  0  0
    7.5620   -2.3704   21.5450 C   0  0  0  0  0  0  0  0  0  0  0  0
    7.3088   -3.7521   21.5441 C   0  0  0  0  0  0  0  0  0  0  0  0
    6.3370   -4.2997   20.7039 C   0  0  0  0  0  0  0  0  0  0  0  0
    5.6051   -3.4758   19.8523 C   0  0  0  0  0  0  0  0  0  0  0  0
    5.8440   -2.1037   19.8392 C   0  0  0  0  0  0  0  0  0  0  0  0
    6.8160   -1.5544   20.6778 C   0  0  0  0  0  0  0  0  0  0  0  0
    8.2846   -2.0179   23.9381 C   0  0  0  0  0  0  0  0  0  0  0  0
    9.3836   -1.7031   24.9534 C   0  0  0  0  0  0  0  0  0  0  0  0
  1  2  2  0
  2  3  1  0
  3  4  2  0
  4  5  1  0
  4  6  1  0
  6  7  2  0
  7  8  1  0
  8  9  2  0
  9 10  1  0
  2 11  1  0
 11 12  1  0
 12 13  1  0
 13 14  1  0
 14 15  1  0
 15 16  1  6
 16 17  2  0
 17 18  1  0
 18 19  2  0
 19 20  1  0
 20 21  2  0
 15 22  1  0
 22 23  1  0
  9  3  1  0
 23 11  1  0
 21 16  1  0
M  END
