
     RDKit          3D

 33 32  0  0  0  0  0  0  0  0999 V2000
    9.2783    6.5830   24.1100 C   0  0  0  0  0  0  0  0  0  0  0  0
   10.4678    6.4027   23.1784 C   0  0  0  0  0  0  0  0  0  0  0  0
   11.7547    6.1392   23.9634 C   0  0  0  0  0  0  0  0  0  0  0  0
   12.9837    5.9351   23.0703 C   0  0  0  0  0  0  0  0  0  0  0  0
   12.8711    4.7705   22.0808 C   0  0  0  0  0  0  0  0  0  0  0  0
   12.5326    3.4004   22.6729 C   0  0  0  0  0  0  0  0  0  0  0  0
   13.5054    2.9629   23.7702 C   0  0  0  0  0  0  0  0  0  0  0  0
   13.2573    1.5371   24.2750 C   0  0  0  0  0  0  0  0  0  0  0  0
   13.5743    0.4554   23.2381 C   0  0  0  0  0  0  0  0  0  0  0  0
   13.7127   -0.9446   23.8480 C   0  0  0  0  0  0  0  0  0  0  0  0
   12.4143   -1.5890   24.3369 C   0  0  0  0  0  0  0  0  0  0  0  0
   12.6330   -2.7207   25.3375 C   0  0  0  0  0  0  0  0  0  0  0  0
   11.3915   -3.3809   25.5803 O   0  0  0  0  0  0  0  0  0  0  0  0
   11.5044   -4.6350   26.2597 C   0  0  0  0  0  0  0  0  0  0  0  0
   10.2464   -5.5047   26.1567 C   0  0  0  0  0  0  0  0  0  0  0  0
    9.0881   -4.6866   26.3374 O   0  0  0  0  0  0  0  0  0  0  0  0
    7.8729   -5.3293   25.9577 C   0  0  0  0  0  0  0  0  0  0  0  0
    6.7879   -4.3108   25.6126 C   0  0  0  0  0  0  0  0  0  0  0  0
    7.3021   -3.3681   24.6683 O   0  0  0  0  0  0  0  0  0  0  0  0
    6.3980   -2.2948   24.4125 C   0  0  0  0  0  0  0  0  0  0  0  0
    6.9466   -1.3988   23.2989 C   0  0  0  0  0  0  0  0  0  0  0  0
    6.3208   -1.7174   21.9245 C   0  0  2  0  0  0  0  0  0  0  0  0
    6.3692   -3.2065   21.6954 C   0  0  0  0  0  0  0  0  0  0  0  0
    7.3910   -3.8681   21.5933 O   0  0  0  0  0  0  0  0  0  0  0  0
    5.1521   -3.7513   21.5798 O   0  0  0  0  0  0  0  0  0  0  0  0
    7.0120   -0.9465   20.7898 C   0  0  2  0  0  0  0  0  0  0  0  0
    7.4888    0.3810   21.2835 C   0  0  0  0  0  0  0  0  0  0  0  0
    6.7536    1.3275   21.5331 O   0  0  0  0  0  0  0  0  0  0  0  0
    8.8186    0.5474   21.3259 O   0  0  0  0  0  0  0  0  0  0  0  0
    6.1246   -0.7209   19.2651 S   0  0  0  0  0  0  0  0  0  0  0  0
    7.0533   -0.3115   18.2344 O   0  0  0  0  0  0  0  0  0  0  0  0
    4.8583   -0.0514   19.4659 O   0  0  0  0  0  0  0  0  0  0  0  0
    5.7502   -2.2706   18.9866 O   0  0  0  0  0  0  0  0  0  0  0  0
  1  2  1  0
  2  3  1  0
  3  4  1  0
  4  5  1  0
  5  6  1  0
  6  7  1  0
  7  8  1  0
  8  9  1  0
  9 10  1  0
 10 11  1  0
 11 12  1  0
 12 13  1  0
 13 14  1  0
 14 15  1  0
 15 16  1  0
 16 17  1  0
 17 18  1  0
 18 19  1  0
 19 20  1  0
 20 21  1  0
 22 21  1  1
 22 23  1  0
 23 24  2  0
 23 25  1  0
 22 26  1  0
 26 27  1  1
 27 28  2  0
 27 29  1  0
 26 30  1  0
 30 31  2  0
 30 32  2  0
 30 33  1  0
M  END
