
     RDKit          3D

 25 27  0  0  0  0  0  0  0  0999 V2000
   15.0515   -2.7687   26.4962 C   0  0  0  0  0  0  0  0  0  0  0  0
   14.5530   -2.2919   25.2560 O   0  0  0  0  0  0  0  0  0  0  0  0
   13.2149   -2.4638   24.9993 C   0  0  0  0  0  0  0  0  0  0  0  0
   12.4022   -3.4180   25.6235 C   0  0  0  0  0  0  0  0  0  0  0  0
   11.0383   -3.5212   25.3032 C   0  0  0  0  0  0  0  0  0  0  0  0
   10.1654   -4.5631   25.9747 C   0  0  0  0  0  0  0  0  0  0  0  0
    9.2539   -3.9958   26.9874 N   0  0  0  0  0  0  0  0  0  0  0  0
    9.3796   -4.6926   28.2898 C   0  0  0  0  0  0  0  0  0  0  0  0
    8.7212   -6.0888   28.3497 C   0  0  0  0  0  0  0  0  0  0  0  0
    7.3112   -6.0851   27.9272 N   0  0  0  0  0  0  0  0  0  0  0  0
    7.2006   -5.4547   26.6005 C   0  0  0  0  0  0  0  0  0  0  0  0
    7.8480   -4.0435   26.5060 C   0  0  1  0  0  0  0  0  0  0  0  0
    7.0125   -2.9974   27.2591 C   0  0  0  0  0  0  0  0  0  0  0  0
   10.5004   -2.6623   24.3366 C   0  0  0  0  0  0  0  0  0  0  0  0
   11.3030   -1.7103   23.7059 C   0  0  0  0  0  0  0  0  0  0  0  0
   12.6552   -1.5998   24.0397 C   0  0  0  0  0  0  0  0  0  0  0  0
   13.5094   -0.7032   23.4482 O   0  0  0  0  0  0  0  0  0  0  0  0
   13.7267    0.5249   24.1496 C   0  0  0  0  0  0  0  0  0  0  0  0
   12.4697    1.4075   24.0180 C   0  0  0  0  0  0  0  0  0  0  0  0
   12.3889    2.2007   22.7709 N   0  0  0  0  0  0  0  0  0  0  0  0
   11.1573    2.9956   22.6481 C   0  0  0  0  0  0  0  0  0  0  0  0
   11.0866    4.1855   23.6070 C   0  0  0  0  0  0  0  0  0  0  0  0
   12.3089    5.0842   23.4511 C   0  0  0  0  0  0  0  0  0  0  0  0
   13.5985    4.2757   23.5407 C   0  0  0  0  0  0  0  0  0  0  0  0
   13.5690    3.0641   22.6031 C   0  0  0  0  0  0  0  0  0  0  0  0
  1  2  1  0
  2  3  1  0
  3  4  2  0
  4  5  1  0
  5  6  1  0
  6  7  1  0
  7  8  1  0
  8  9  1  0
  9 10  1  0
 10 11  1  0
 11 12  1  0
 12 13  1  1
  5 14  2  0
 14 15  1  0
 15 16  2  0
 16 17  1  0
 17 18  1  0
 18 19  1  0
 19 20  1  0
 20 21  1  0
 21 22  1  0
 22 23  1  0
 23 24  1  0
 24 25  1  0
 16  3  1  0
 25 20  1  0
 12  7  1  0
M  END
