
     RDKit          3D

 25 27  0  0  0  0  0  0  0  0999 V2000
   14.6602   -2.8368   26.3905 C   0  0  0  0  0  0  0  0  0  0  0  0
   13.5813   -2.3753   25.4586 C   0  0  0  0  0  0  0  0  0  0  0  0
   13.7242   -1.1836   24.7478 C   0  0  0  0  0  0  0  0  0  0  0  0
   12.7318   -0.7346   23.8520 C   0  0  0  0  0  0  0  0  0  0  0  0
   12.9665    0.6043   23.1645 C   0  0  0  0  0  0  0  0  0  0  0  0
   12.7729    1.7724   24.0448 N   0  0  0  0  0  0  0  0  0  0  0  0
   11.3621    2.2121   24.0249 C   0  0  0  0  0  0  0  0  0  0  0  0
   10.9311    2.9659   22.7423 C   0  0  0  0  0  0  0  0  0  0  0  0
   11.8002    4.0959   22.3600 N   0  0  0  0  0  0  0  0  0  0  0  0
   11.5740    5.2560   23.2216 C   0  0  0  0  0  0  0  0  0  0  0  0
   13.2146    3.6702   22.3970 C   0  0  0  0  0  0  0  0  0  0  0  0
   13.6368    2.9153   23.6809 C   0  0  0  0  0  0  0  0  0  0  0  0
   11.5740   -1.5254   23.6374 C   0  0  0  0  0  0  0  0  0  0  0  0
   10.4911   -1.0689   22.6902 C   0  0  0  0  0  0  0  0  0  0  0  0
   11.4178   -2.7308   24.3676 C   0  0  0  0  0  0  0  0  0  0  0  0
   10.1729   -3.6039   24.2849 C   0  0  0  0  0  0  0  0  0  0  0  0
    9.4780   -3.7682   25.5762 N   0  0  0  0  0  0  0  0  0  0  0  0
    8.4935   -2.6941   25.7606 C   0  0  0  0  0  0  0  0  0  0  0  0
    7.6636   -2.9035   27.0243 C   0  0  0  0  0  0  0  0  0  0  0  0
    6.8802   -4.2126   26.9824 C   0  0  0  0  0  0  0  0  0  0  0  0
    7.3942   -5.1558   25.8981 C   0  0  0  0  0  0  0  0  0  0  0  0
    8.9304   -5.1360   25.7653 C   0  0  2  0  0  0  0  0  0  0  0  0
    9.6319   -5.7849   26.9934 C   0  0  0  0  0  0  0  0  0  0  0  0
    9.6826   -4.8993   28.1637 N   0  0  0  0  0  0  0  0  0  0  0  0
   12.4308   -3.1370   25.2612 C   0  0  0  0  0  0  0  0  0  0  0  0
  1  2  1  0
  2  3  2  0
  3  4  1  0
  4  5  1  0
  5  6  1  0
  6  7  1  0
  7  8  1  0
  8  9  1  0
  9 10  1  0
  9 11  1  0
 11 12  1  0
  4 13  2  0
 13 14  1  0
 13 15  1  0
 15 16  1  0
 16 17  1  0
 17 18  1  0
 18 19  1  0
 19 20  1  0
 20 21  1  0
 21 22  1  0
 22 23  1  1
 23 24  1  0
 15 25  2  0
 25  2  1  0
 12  6  1  0
 22 17  1  0
M  END
