
     RDKit          3D

 24 26  0  0  0  0  0  0  0  0999 V2000
    7.8596   -5.4887   24.4833 C   0  0  0  0  0  0  0  0  0  0  0  0
    8.3739   -4.5274   25.3943 O   0  0  0  0  0  0  0  0  0  0  0  0
    9.2633   -3.6085   24.9005 C   0  0  0  0  0  0  0  0  0  0  0  0
   10.6387   -3.8096   24.7765 C   0  0  0  0  0  0  0  0  0  0  0  0
   11.4560   -2.7907   24.2811 C   0  0  0  0  0  0  0  0  0  0  0  0
   10.9053   -1.5688   23.8926 C   0  0  0  0  0  0  0  0  0  0  0  0
    9.5259   -1.3403   23.9946 C   0  0  0  0  0  0  0  0  0  0  0  0
    8.7239   -2.3660   24.5192 C   0  0  0  0  0  0  0  0  0  0  0  0
    7.3738   -2.1442   24.6712 O   0  0  0  0  0  0  0  0  0  0  0  0
    7.1440   -1.5927   25.9730 C   0  0  0  0  0  0  0  0  0  0  0  0
    6.3950   -0.2724   25.8553 C   0  0  0  0  0  0  0  0  0  0  0  0
    6.8601    0.6336   24.7148 C   0  0  0  0  0  0  0  0  0  0  0  0
    8.3131    0.7750   24.5594 N   0  0  0  0  0  0  0  0  0  0  0  0
    9.1403    1.5685   25.3400 C   0  0  0  0  0  0  0  0  0  0  0  0
    8.7399    2.2632   26.2723 O   0  0  0  0  0  0  0  0  0  0  0  0
   10.5893    1.5717   25.0173 C   0  0  0  0  0  0  0  0  0  0  0  0
   11.1256    2.3915   23.9524 C   0  0  0  0  0  0  0  0  0  0  0  0
   12.4388    2.3524   23.6770 C   0  0  0  0  0  0  0  0  0  0  0  0
   13.0878    3.1593   22.5965 C   0  0  0  0  0  0  0  0  0  0  0  0
   13.2512    1.5206   24.4157 N   0  0  0  0  0  0  0  0  0  0  0  0
   12.8138    0.6918   25.4208 C   0  0  0  0  0  0  0  0  0  0  0  0
   13.5708   -0.0328   26.0557 O   0  0  0  0  0  0  0  0  0  0  0  0
   11.3643    0.7282   25.7140 C   0  0  0  0  0  0  0  0  0  0  0  0
    8.9468   -0.0316   23.5133 C   0  0  0  0  0  0  0  0  0  0  0  0
  1  2  1  0
  2  3  1  0
  3  4  2  0
  4  5  1  0
  5  6  2  0
  6  7  1  0
  7  8  2  0
  8  9  1  0
  9 10  1  0
 10 11  1  0
 11 12  1  0
 12 13  1  0
 13 14  1  0
 14 15  2  0
 14 16  1  0
 16 17  1  0
 17 18  2  0
 18 19  1  0
 18 20  1  0
 20 21  1  0
 21 22  2  0
 21 23  1  0
 13 24  1  0
  8  3  1  0
 23 16  2  0
 24  7  1  0
M  END
