
     RDKit          3D

 24 26  0  0  0  0  0  0  0  0999 V2000
   14.6310   -2.3899   26.1650 C   0  0  0  0  0  0  0  0  0  0  0  0
   14.3097   -2.7457   24.8280 O   0  0  0  0  0  0  0  0  0  0  0  0
   12.9850   -2.7036   24.4641 C   0  0  0  0  0  0  0  0  0  0  0  0
   11.9939   -3.5414   24.9890 C   0  0  0  0  0  0  0  0  0  0  0  0
   10.6573   -3.4318   24.5696 C   0  0  0  0  0  0  0  0  0  0  0  0
    9.5973   -4.3498   25.1412 C   0  0  0  0  0  0  0  0  0  0  0  0
    9.3350   -4.1047   26.5613 N   0  0  0  0  0  0  0  0  0  0  0  0
    9.9874   -5.0959   27.4243 C   0  0  0  0  0  0  0  0  0  0  0  0
    9.1615   -5.1301   28.7109 C   0  0  0  0  0  0  0  0  0  0  0  0
    7.9715   -4.2116   28.4409 C   0  0  2  0  0  0  0  0  0  0  0  0
    6.7490   -4.6692   29.0970 N   0  0  0  0  0  0  0  0  0  0  0  0
    7.9118   -4.1597   26.9107 C   0  0  0  0  0  0  0  0  0  0  0  0
   10.3280   -2.4761   23.6030 C   0  0  0  0  0  0  0  0  0  0  0  0
   11.3110   -1.6395   23.0674 C   0  0  0  0  0  0  0  0  0  0  0  0
   12.6391   -1.7429   23.4939 C   0  0  0  0  0  0  0  0  0  0  0  0
   13.6677   -0.9687   23.0165 O   0  0  0  0  0  0  0  0  0  0  0  0
   13.7996    0.3547   23.5414 C   0  0  0  0  0  0  0  0  0  0  0  0
   12.5276    1.1364   23.1742 C   0  0  0  0  0  0  0  0  0  0  0  0
   12.5151    2.5339   23.6563 N   0  0  0  0  0  0  0  0  0  0  0  0
   11.2244    3.1604   23.3176 C   0  0  0  0  0  0  0  0  0  0  0  0
   11.1418    4.5941   23.8428 C   0  0  0  0  0  0  0  0  0  0  0  0
   12.2956    5.4406   23.3210 C   0  0  0  0  0  0  0  0  0  0  0  0
   13.6251    4.7531   23.6049 C   0  0  0  0  0  0  0  0  0  0  0  0
   13.6307    3.3114   23.0909 C   0  0  0  0  0  0  0  0  0  0  0  0
  1  2  1  0
  2  3  1  0
  3  4  2  0
  4  5  1  0
  5  6  1  0
  6  7  1  0
  7  8  1  0
  8  9  1  0
  9 10  1  0
 10 11  1  6
 10 12  1  0
  5 13  2  0
 13 14  1  0
 14 15  2  0
 15 16  1  0
 16 17  1  0
 17 18  1  0
 18 19  1  0
 19 20  1  0
 20 21  1  0
 21 22  1  0
 22 23  1  0
 23 24  1  0
 15  3  1  0
 24 19  1  0
 12  7  1  0
M  END
