
     RDKit          3D

 25 27  0  0  0  0  0  0  0  0999 V2000
    8.1590    6.0587   23.1127 C   0  0  0  0  0  0  0  0  0  0  0  0
    9.5941    6.1304   23.4488 C   0  0  0  0  0  0  0  0  0  0  0  0
   10.3809    7.0896   24.0458 C   0  0  0  0  0  0  0  0  0  0  0  0
   11.6929    6.5590   24.0822 C   0  0  0  0  0  0  0  0  0  0  0  0
   11.6289    5.2990   23.5190 C   0  0  0  0  0  0  0  0  0  0  0  0
   12.6446    4.2321   23.2298 C   0  0  2  0  0  0  0  0  0  0  0  0
   13.3392    4.4477   21.8808 C   0  0  0  0  0  0  0  0  0  0  0  0
   12.0700    2.8031   23.3448 C   0  0  0  0  0  0  0  0  0  0  0  0
   13.1065    1.7228   23.6996 C   0  0  0  0  0  0  0  0  0  0  0  0
   12.5211    0.3676   23.7454 N   0  0  0  0  0  0  0  0  0  0  0  0
   13.5842   -0.6280   23.9471 C   0  0  0  0  0  0  0  0  0  0  0  0
   13.0360   -2.0553   23.9467 C   0  0  0  0  0  0  0  0  0  0  0  0
   11.9613   -2.2472   25.0343 C   0  0  0  0  0  0  0  0  0  0  0  0
   11.4376   -3.6318   25.0006 N   0  0  0  0  0  0  0  0  0  0  0  0
    9.9872   -3.7379   24.7633 C   0  0  0  0  0  0  0  0  0  0  0  0
    9.4415   -5.1559   25.0462 C   0  0  0  0  0  0  0  0  0  0  0  0
    9.6082   -5.6086   26.4450 N   0  0  0  0  0  0  0  0  0  0  0  0
    8.3351   -5.5298   27.1930 C   0  0  0  0  0  0  0  0  0  0  0  0
    8.4833   -6.0204   28.6418 C   0  0  0  0  0  0  0  0  0  0  0  0
    7.2430   -5.8748   29.3308 O   0  0  0  0  0  0  0  0  0  0  0  0
   10.6881   -4.8499   27.1130 C   0  0  0  0  0  0  0  0  0  0  0  0
   11.8451   -4.4494   26.1654 C   0  0  0  0  0  0  0  0  0  0  0  0
   10.8856   -1.1653   24.8143 C   0  0  0  0  0  0  0  0  0  0  0  0
   11.4934    0.2396   24.7857 C   0  0  0  0  0  0  0  0  0  0  0  0
   10.3461    5.0438   23.1242 O   0  0  0  0  0  0  0  0  0  0  0  0
  1  2  1  0
  2  3  2  0
  3  4  1  0
  4  5  2  0
  5  6  1  0
  6  7  1  6
  6  8  1  0
  8  9  1  0
  9 10  1  0
 10 11  1  0
 11 12  1  0
 12 13  1  0
 13 14  1  0
 14 15  1  0
 15 16  1  0
 16 17  1  0
 17 18  1  0
 18 19  1  0
 19 20  1  0
 17 21  1  0
 21 22  1  0
 13 23  1  0
 23 24  1  0
  5 25  1  0
 25  2  1  0
 24 10  1  0
 22 14  1  0
M  END
