
     RDKit          3D

 21 22  0  0  0  0  0  0  0  0999 V2000
   -1.6714    4.1956   27.5693 C   0  0  0  0  0  0  0  0  0  0  0  0
   -1.0781    5.2475   28.3190 O   0  0  0  0  0  0  0  0  0  0  0  0
   -0.8521    6.4327   27.6696 C   0  0  0  0  0  0  0  0  0  0  0  0
   -1.7283    7.5202   27.6670 C   0  0  0  0  0  0  0  0  0  0  0  0
   -1.4090    8.6887   26.9633 C   0  0  0  0  0  0  0  0  0  0  0  0
   -0.1978    8.8026   26.2652 C   0  0  0  0  0  0  0  0  0  0  0  0
    0.1122   10.0433   25.5240 C   0  0  0  0  0  0  0  0  0  0  0  0
    1.1912   10.7695   25.9737 N   0  0  0  0  0  0  0  0  0  0  0  0
    1.4942   11.9848   25.4263 C   0  0  0  0  0  0  0  0  0  0  0  0
    2.6005   12.7872   26.0609 C   0  0  0  0  0  0  0  0  0  0  0  0
    0.8701   12.4888   24.4098 N   0  0  0  0  0  0  0  0  0  0  0  0
   -0.1650   11.7769   23.8280 C   0  0  0  0  0  0  0  0  0  0  0  0
   -0.7243   12.1759   22.8105 O   0  0  0  0  0  0  0  0  0  0  0  0
   -0.6093   10.4927   24.4814 C   0  0  0  0  0  0  0  0  0  0  0  0
   -2.0121    9.7147   23.8488 Cl  0  0  0  0  0  0  0  0  0  0  0  0
    0.6865    7.7120   26.2721 C   0  0  0  0  0  0  0  0  0  0  0  0
    1.8502    7.8015   25.5429 O   0  0  0  0  0  0  0  0  0  0  0  0
    2.9603    8.0702   26.4037 C   0  0  0  0  0  0  0  0  0  0  0  0
    0.3444    6.5256   26.9403 C   0  0  0  0  0  0  0  0  0  0  0  0
    1.2212    5.4660   26.9238 O   0  0  0  0  0  0  0  0  0  0  0  0
    1.1196    4.7696   25.6822 C   0  0  0  0  0  0  0  0  0  0  0  0
  1  2  1  0
  2  3  1  0
  3  4  2  0
  4  5  1  0
  5  6  2  0
  6  7  1  0
  7  8  1  0
  8  9  1  0
  9 10  1  0
  9 11  2  0
 11 12  1  0
 12 13  2  0
 12 14  1  0
 14 15  1  0
  6 16  1  0
 16 17  1  0
 17 18  1  0
 16 19  2  0
 19 20  1  0
 20 21  1  0
 19  3  1  0
 14  7  2  0
M  END
