
     RDKit          3D

 34 37  0  0  0  0  0  0  0  0999 V2000
    4.9766    0.6452   19.7886 C   0  0  0  0  0  0  0  0  0  0  0  0
    6.2878   -0.1573   19.9482 C   0  0  0  0  0  0  0  0  0  0  0  0
    7.3176    0.7730   20.6246 C   0  0  0  0  0  0  0  0  0  0  0  0
    6.7787   -0.5109   18.5272 C   0  0  0  0  0  0  0  0  0  0  0  0
    6.1313   -1.4399   20.7835 C   0  0  0  0  0  0  0  0  0  0  0  0
    6.2005   -1.3849   22.1888 C   0  0  0  0  0  0  0  0  0  0  0  0
    6.0582   -2.5321   22.9828 C   0  0  0  0  0  0  0  0  0  0  0  0
    5.8374   -3.7699   22.3897 C   0  0  0  0  0  0  0  0  0  0  0  0
    5.6817   -4.9658   23.0299 O   0  0  0  0  0  0  0  0  0  0  0  0
    5.5530   -4.9746   24.4501 C   0  0  0  0  0  0  0  0  0  0  0  0
    6.9008   -5.2189   25.1321 C   0  0  0  0  0  0  0  0  0  0  0  0
    7.8033   -4.1362   24.9090 O   0  0  0  0  0  0  0  0  0  0  0  0
    8.8879   -4.0575   25.8443 C   0  0  0  0  0  0  0  0  0  0  0  0
   10.1808   -4.6658   25.2664 C   0  0  2  0  0  0  0  0  0  0  0  0
   10.2694   -6.0661   25.5869 O   0  0  0  0  0  0  0  0  0  0  0  0
   11.4501   -3.9743   25.8166 C   0  0  0  0  0  0  0  0  0  0  0  0
   12.1948   -3.1484   24.8537 N   0  0  0  0  0  0  0  0  0  0  0  0
   13.4091   -2.5596   25.4559 C   0  0  0  0  0  0  0  0  0  0  0  0
   14.1420   -1.5837   24.5027 C   0  0  0  0  0  0  0  0  0  0  0  0
   13.2994   -0.5080   23.9386 N   0  0  0  0  0  0  0  0  0  0  0  0
   12.9390    0.5161   24.9323 C   0  0  0  0  0  0  0  0  0  0  0  0
   12.4728    1.8233   24.3224 C   0  0  0  0  0  0  0  0  0  0  0  0
   11.1029    2.1803   24.3467 C   0  0  0  0  0  0  0  0  0  0  0  0
   10.6629    3.3985   23.8188 C   0  0  0  0  0  0  0  0  0  0  0  0
   11.6103    4.2429   23.2847 C   0  0  0  0  0  0  0  0  0  0  0  0
   12.9440    3.9095   23.2612 C   0  0  0  0  0  0  0  0  0  0  0  0
   13.4074    2.7133   23.7684 C   0  0  0  0  0  0  0  0  0  0  0  0
   13.7120    4.8822   22.7015 O   0  0  0  0  0  0  0  0  0  0  0  0
   12.7086    5.8711   22.3874 C   0  0  0  0  0  0  0  0  0  0  0  0
   11.3706    5.4663   22.7398 O   0  0  0  0  0  0  0  0  0  0  0  0
   12.0918   -1.1278   23.3554 C   0  0  0  0  0  0  0  0  0  0  0  0
   11.3321   -2.0831   24.3065 C   0  0  0  0  0  0  0  0  0  0  0  0
    5.7643   -3.8430   21.0000 C   0  0  0  0  0  0  0  0  0  0  0  0
    5.9088   -2.6984   20.2068 C   0  0  0  0  0  0  0  0  0  0  0  0
  1  2  1  0
  2  3  1  0
  2  4  1  0
  2  5  1  0
  5  6  2  0
  6  7  1  0
  7  8  2  0
  8  9  1  0
  9 10  1  0
 10 11  1  0
 11 12  1  0
 12 13  1  0
 13 14  1  0
 14 15  1  1
 14 16  1  0
 16 17  1  0
 17 18  1  0
 18 19  1  0
 19 20  1  0
 20 21  1  0
 21 22  1  0
 22 23  2  0
 23 24  1  0
 24 25  2  0
 25 26  1  0
 26 27  2  0
 26 28  1  0
 28 29  1  0
 29 30  1  0
 20 31  1  0
 31 32  1  0
  8 33  1  0
 33 34  2  0
 34  5  1  0
 32 17  1  0
 27 22  1  0
 30 25  1  0
M  END
