
     RDKit          3D

 23 24  0  0  0  0  0  0  0  0999 V2000
   11.7832   -3.2894   25.3797 C   0  0  0  0  0  0  0  0  0  0  0  0
   10.5343   -3.2567   26.0582 O   0  0  0  0  0  0  0  0  0  0  0  0
    9.5134   -2.5793   25.4419 C   0  0  0  0  0  0  0  0  0  0  0  0
    9.0737   -1.3026   25.8120 C   0  0  0  0  0  0  0  0  0  0  0  0
    8.0265   -0.6616   25.1161 C   0  0  0  0  0  0  0  0  0  0  0  0
    7.5476    0.7308   25.5067 C   0  0  1  0  0  0  0  0  0  0  0  0
    7.8248    1.6593   24.4148 N   0  0  0  0  0  0  0  0  0  0  0  0
    6.8834    2.2642   23.6432 C   0  0  0  0  0  0  0  0  0  0  0  0
    7.1845    2.8960   22.6374 O   0  0  0  0  0  0  0  0  0  0  0  0
    5.5886    2.1426   24.0585 N   0  0  0  0  0  0  0  0  0  0  0  0
    5.1674    1.4619   25.1854 C   0  0  0  0  0  0  0  0  0  0  0  0
    3.7055    1.6025   25.5077 C   0  0  0  0  0  0  0  0  0  0  0  0
    6.1047    0.7892   25.8765 C   0  0  0  0  0  0  0  0  0  0  0  0
    5.7584    0.0580   27.0677 N   0  0  0  0  0  0  0  0  0  0  0  0
    4.5704    0.0850   27.4107 O   0  0  0  0  0  0  0  0  0  0  0  0
    6.6641   -0.5291   27.6719 O   0  0  0  0  0  0  0  0  0  0  0  0
    7.4293   -1.3251   24.0340 C   0  0  0  0  0  0  0  0  0  0  0  0
    7.8501   -2.6047   23.6704 C   0  0  0  0  0  0  0  0  0  0  0  0
    7.2124   -3.1832   22.6032 O   0  0  0  0  0  0  0  0  0  0  0  0
    6.1852   -2.3285   22.0982 C   0  0  0  0  0  0  0  0  0  0  0  0
    8.9165   -3.2140   24.3432 C   0  0  0  0  0  0  0  0  0  0  0  0
    9.3545   -4.4626   23.9731 O   0  0  0  0  0  0  0  0  0  0  0  0
    8.6242   -5.4621   24.6843 C   0  0  0  0  0  0  0  0  0  0  0  0
  1  2  1  0
  2  3  1  0
  3  4  2  0
  4  5  1  0
  6  5  1  6
  6  7  1  0
  7  8  1  0
  8  9  2  0
  8 10  1  0
 10 11  1  0
 11 12  1  0
 11 13  2  0
 13 14  1  0
 14 15  2  0
 14 16  1  0
  5 17  2  0
 17 18  1  0
 18 19  1  0
 19 20  1  0
 18 21  2  0
 21 22  1  0
 22 23  1  0
 21  3  1  0
 13  6  1  0
M  CHG  2  14   1  16  -1
M  END
