
     RDKit          3D

 15 16  0  0  0  0  0  0  0  0999 V2000
   14.1643    1.2945   23.2204 O   0  0  0  0  0  0  0  0  0  0  0  0
   13.3759    0.3822   23.4458 C   0  0  0  0  0  0  0  0  0  0  0  0
   13.7133   -0.6072   24.3197 N   0  0  0  0  0  0  0  0  0  0  0  0
   12.8862   -1.6740   24.6334 C   0  0  0  0  0  0  0  0  0  0  0  0
   13.2795   -2.6676   25.5397 C   0  0  0  0  0  0  0  0  0  0  0  0
   14.9722   -2.6118   26.3940 Br  0  0  0  0  0  0  0  0  0  0  0  0
   12.4221   -3.7281   25.8329 C   0  0  0  0  0  0  0  0  0  0  0  0
   11.1730   -3.7871   25.2151 C   0  0  0  0  0  0  0  0  0  0  0  0
   10.0156   -5.2287   25.6179 Br  0  0  0  0  0  0  0  0  0  0  0  0
   10.7832   -2.7959   24.3124 C   0  0  0  0  0  0  0  0  0  0  0  0
    9.5769   -2.8777   23.7331 F   0  0  0  0  0  0  0  0  0  0  0  0
   11.6451   -1.7366   24.0223 C   0  0  0  0  0  0  0  0  0  0  0  0
   11.2786   -0.6711   23.0795 C   0  0  0  0  0  0  0  0  0  0  0  0
   10.1922   -0.6842   22.5153 O   0  0  0  0  0  0  0  0  0  0  0  0
   12.1630    0.3252   22.8458 O   0  0  0  0  0  0  0  0  0  0  0  0
  1  2  2  0
  2  3  1  0
  3  4  1  0
  4  5  2  0
  5  6  1  0
  5  7  1  0
  7  8  2  0
  8  9  1  0
  8 10  1  0
 10 11  1  0
 10 12  2  0
 12 13  1  0
 13 14  2  0
 13 15  1  0
 15  2  1  0
 12  4  1  0
M  END
