
     RDKit          3D

 27 30  0  0  0  0  0  0  0  0999 V2000
    3.8947    3.0795   19.8186 C   0  0  0  0  0  0  0  0  0  0  0  0
    4.3773    1.6960   20.0535 C   0  0  0  0  0  0  0  0  0  0  0  0
    4.6383    0.8877   19.0199 N   0  0  0  0  0  0  0  0  0  0  0  0
    5.0047   -0.2709   19.5907 N   0  0  0  0  0  0  0  0  0  0  0  0
    5.3211   -1.3982   18.7438 C   0  0  0  0  0  0  0  0  0  0  0  0
    4.9908   -0.2374   20.9622 C   0  0  0  0  0  0  0  0  0  0  0  0
    5.2721   -1.4294   21.8015 C   0  0  0  0  0  0  0  0  0  0  0  0
    4.6279    1.0606   21.2980 C   0  0  0  0  0  0  0  0  0  0  0  0
    4.4490    1.6334   22.6227 C   0  0  0  0  0  0  0  0  0  0  0  0
    3.4991    2.3772   22.8583 O   0  0  0  0  0  0  0  0  0  0  0  0
    5.4010    1.3229   23.5923 N   0  0  0  0  0  0  0  0  0  0  0  0
    5.2327    1.8925   24.9286 C   0  0  0  0  0  0  0  0  0  0  0  0
    6.0074    1.1231   26.0075 C   0  0  0  0  0  0  0  0  0  0  0  0
    7.4212    0.9155   25.6696 N   0  0  0  0  0  0  0  0  0  0  0  0
    8.4262    0.5927   26.5906 C   0  0  0  0  0  0  0  0  0  0  0  0
    8.1527    0.4683   27.7877 O   0  0  0  0  0  0  0  0  0  0  0  0
    9.8266    0.4045   26.1402 C   0  0  0  0  0  0  0  0  0  0  0  0
   10.5994    1.3955   25.4620 C   0  0  0  0  0  0  0  0  0  0  0  0
   11.8167    0.8137   25.2006 C   0  0  0  0  0  0  0  0  0  0  0  0
   11.7283   -0.4489   25.7110 N   0  0  0  0  0  0  0  0  0  0  0  0
   10.5393   -0.7340   26.2637 N   0  0  0  0  0  0  0  0  0  0  0  0
   12.7607   -1.4645   25.6165 C   0  0  0  0  0  0  0  0  0  0  0  0
   14.1175   -0.8701   25.2354 C   0  0  0  0  0  0  0  0  0  0  0  0
   13.9692    0.1616   24.1142 C   0  0  0  0  0  0  0  0  0  0  0  0
   13.0557    1.3134   24.5465 C   0  0  0  0  0  0  0  0  0  0  0  0
    7.8018    1.1572   24.2777 C   0  0  0  0  0  0  0  0  0  0  0  0
    6.7070    0.7190   23.2953 C   0  0  0  0  0  0  0  0  0  0  0  0
  1  2  1  0
  2  3  2  0
  3  4  1  0
  4  5  1  0
  4  6  1  0
  6  7  1  0
  6  8  2  0
  8  9  1  0
  9 10  2  0
  9 11  1  0
 11 12  1  0
 12 13  1  0
 13 14  1  0
 14 15  1  0
 15 16  2  0
 15 17  1  0
 17 18  1  0
 18 19  2  0
 19 20  1  0
 20 21  1  0
 20 22  1  0
 22 23  1  0
 23 24  1  0
 24 25  1  0
 14 26  1  0
 26 27  1  0
  8  2  1  0
 27 11  1  0
 21 17  2  0
 25 19  1  0
M  END
