
     RDKit          3D

 24 26  0  0  0  0  0  0  0  0999 V2000
   12.4017    5.5668   22.0044 C   0  0  0  0  0  0  0  0  0  0  0  0
   12.4865    5.3462   23.4459 N   0  0  0  0  0  0  0  0  0  0  0  0
   11.3333    4.5797   23.9505 C   0  0  0  0  0  0  0  0  0  0  0  0
   11.3402    3.0731   23.5935 C   0  0  0  0  0  0  0  0  0  0  0  0
   12.5864    2.3754   24.0069 N   0  0  0  0  0  0  0  0  0  0  0  0
   12.5461    0.9265   23.6133 C   0  0  1  0  0  0  0  0  0  0  0  0
   13.8517    0.1685   23.9690 C   0  0  0  0  0  0  0  0  0  0  0  0
   13.8671   -1.3336   23.6774 C   0  0  0  0  0  0  0  0  0  0  0  0
   12.9650   -2.1206   24.6195 C   0  0  0  0  0  0  0  0  0  0  0  0
   11.5117   -2.2159   24.1496 C   0  0  0  0  0  0  0  0  0  0  0  0
   10.9358   -1.0141   23.5406 N   0  0  0  0  0  0  0  0  0  0  0  0
    9.4670   -1.1166   23.3925 C   0  0  0  0  0  0  0  0  0  0  0  0
    8.9791   -2.1364   22.3505 C   0  0  0  0  0  0  0  0  0  0  0  0
    7.5770   -1.8797   21.7996 C   0  0  0  0  0  0  0  0  0  0  0  0
    7.3896   -0.5785   21.2469 O   0  0  0  0  0  0  0  0  0  0  0  0
    6.0689   -0.3287   20.7674 C   0  0  1  0  0  0  0  0  0  0  0  0
    5.9994    1.1443   20.3341 C   0  0  0  0  0  0  0  0  0  0  0  0
    4.9770    1.3419   19.2274 C   0  0  0  0  0  0  0  0  0  0  0  0
    5.3105    0.4543   18.0297 C   0  0  0  0  0  0  0  0  0  0  0  0
    6.1272   -0.7695   18.4329 C   0  0  0  0  0  0  0  0  0  0  0  0
    5.7155   -1.2288   19.7145 O   0  0  0  0  0  0  0  0  0  0  0  0
   11.3000    0.2280   24.2538 C   0  0  0  0  0  0  0  0  0  0  0  0
   13.7410    3.1228   23.4625 C   0  0  0  0  0  0  0  0  0  0  0  0
   13.7204    4.6312   23.8163 C   0  0  0  0  0  0  0  0  0  0  0  0
  1  2  1  0
  2  3  1  0
  3  4  1  0
  4  5  1  0
  6  5  1  1
  6  7  1  0
  7  8  1  0
  8  9  1  0
  9 10  1  0
 10 11  1  0
 11 12  1  0
 12 13  1  0
 13 14  1  0
 14 15  1  0
 16 15  1  6
 16 17  1  0
 17 18  1  0
 18 19  1  0
 19 20  1  0
 20 21  1  0
 11 22  1  0
  5 23  1  0
 23 24  1  0
 24  2  1  0
 22  6  1  0
 21 16  1  0
M  END
