
     RDKit          3D

 25 28  0  0  0  0  0  0  0  0999 V2000
    7.6866    6.9624   26.9819 C   0  0  0  0  0  0  0  0  0  0  0  0
    6.9745    8.0893   27.4739 O   0  0  0  0  0  0  0  0  0  0  0  0
    6.1855    8.7698   26.5827 C   0  0  0  0  0  0  0  0  0  0  0  0
    5.0748    8.2325   25.9298 C   0  0  0  0  0  0  0  0  0  0  0  0
    4.3242    9.0030   25.0197 C   0  0  0  0  0  0  0  0  0  0  0  0
    3.1259    8.4135   24.3006 C   0  0  2  0  0  0  0  0  0  0  0  0
    1.9273    8.8743   24.9635 O   0  0  0  0  0  0  0  0  0  0  0  0
    0.7896    8.0519   24.6579 C   0  0  2  0  0  0  0  0  0  0  0  0
   -0.4658    8.7280   25.2062 C   0  0  0  0  0  0  0  0  0  0  0  0
   -1.7058    7.8814   24.9371 C   0  0  0  0  0  0  0  0  0  0  0  0
   -1.5509    6.4592   25.4708 C   0  0  0  0  0  0  0  0  0  0  0  0
   -0.2714    5.7860   24.9693 C   0  0  0  0  0  0  0  0  0  0  0  0
    0.9606    6.6408   25.2813 C   0  0  1  0  0  0  0  0  0  0  0  0
    2.2714    6.0896   24.7808 C   0  0  0  0  0  0  0  0  0  0  0  0
    2.6904    4.4434   24.7678 S   0  0  0  0  0  0  0  0  0  0  0  0
    4.2261    4.7832   24.0979 C   0  0  0  0  0  0  0  0  0  0  0  0
    4.4231    6.1342   23.9116 C   0  0  0  0  0  0  0  0  0  0  0  0
    3.2969    6.9104   24.3385 C   0  0  0  0  0  0  0  0  0  0  0  0
    4.7028   10.3372   24.7782 C   0  0  0  0  0  0  0  0  0  0  0  0
    5.8081   10.8964   25.4244 C   0  0  0  0  0  0  0  0  0  0  0  0
    6.2500   12.1827   25.2498 O   0  0  0  0  0  0  0  0  0  0  0  0
    6.2828   12.6924   23.9247 C   0  0  0  0  0  0  0  0  0  0  0  0
    6.5310   10.1090   26.3369 C   0  0  0  0  0  0  0  0  0  0  0  0
    7.6476   10.6417   26.9458 O   0  0  0  0  0  0  0  0  0  0  0  0
    7.5174   10.5381   28.3624 C   0  0  0  0  0  0  0  0  0  0  0  0
  1  2  1  0
  2  3  1  0
  3  4  2  0
  4  5  1  0
  6  5  1  1
  6  7  1  0
  7  8  1  0
  8  9  1  1
  9 10  1  0
 10 11  1  0
 11 12  1  0
 13 12  1  6
 13 14  1  0
 14 15  1  0
 15 16  1  0
 16 17  2  0
 17 18  1  0
  5 19  2  0
 19 20  1  0
 20 21  1  0
 21 22  1  0
 20 23  2  0
 23 24  1  0
 24 25  1  0
 23  3  1  0
 18  6  1  0
 13  8  1  0
 18 14  2  0
M  END
