
     RDKit          3D

 32 34  0  0  0  0  0  0  0  0999 V2000
    4.7807    1.0127   18.8732 C   0  0  0  0  0  0  0  0  0  0  0  0
    5.6352    0.2170   17.9020 C   0  0  0  0  0  0  0  0  0  0  0  0
    6.9136   -0.0697   18.4667 O   0  0  0  0  0  0  0  0  0  0  0  0
    6.9755   -0.7294   19.6612 C   0  0  0  0  0  0  0  0  0  0  0  0
    6.1039   -1.8151   19.7671 C   0  0  0  0  0  0  0  0  0  0  0  0
    6.0533   -2.5818   20.9333 C   0  0  0  0  0  0  0  0  0  0  0  0
    6.8785   -2.2722   22.0190 C   0  0  0  0  0  0  0  0  0  0  0  0
    6.8204   -3.0919   23.2830 C   0  0  0  0  0  0  0  0  0  0  0  0
    8.1538   -3.7569   23.6545 C   0  0  0  0  0  0  0  0  0  0  0  0
    8.4334   -3.8776   25.1710 C   0  0  0  0  0  0  0  0  0  0  0  0
    8.8270   -2.5492   25.8363 C   0  0  0  0  0  0  0  0  0  0  0  0
   10.2338   -2.0879   25.4444 C   0  0  0  0  0  0  0  0  0  0  0  0
   11.2232   -3.1237   25.7466 N   0  0  0  0  0  0  0  0  0  0  0  0
   12.6140   -2.6708   25.5728 C   0  0  0  0  0  0  0  0  0  0  0  0
   12.9569   -2.0259   24.2263 C   0  0  0  0  0  0  0  0  0  0  0  0
   12.9703   -0.5085   24.3196 C   0  0  0  0  0  0  0  0  0  0  0  0
   13.8159    0.1025   24.9609 O   0  0  0  0  0  0  0  0  0  0  0  0
   11.9151    0.0493   23.6127 N   0  0  0  0  0  0  0  0  0  0  0  0
   11.6036    1.4175   23.4707 C   0  0  0  0  0  0  0  0  0  0  0  0
   10.2481    1.7530   23.3338 C   0  0  0  0  0  0  0  0  0  0  0  0
    9.8472    3.0845   23.1852 C   0  0  0  0  0  0  0  0  0  0  0  0
   10.7992    4.0997   23.1697 C   0  0  0  0  0  0  0  0  0  0  0  0
   12.1480    3.7686   23.3051 C   0  0  0  0  0  0  0  0  0  0  0  0
   13.3781    5.0371   23.2680 S   0  0  0  0  0  0  0  0  0  0  0  0
   12.6523    6.2614   24.1569 N   0  0  0  0  0  0  0  0  0  0  0  0
   13.4898    5.5536   21.9227 O   0  0  0  0  0  0  0  0  0  0  0  0
   14.5256    4.6005   24.0265 O   0  0  0  0  0  0  0  0  0  0  0  0
   12.5557    2.4359   23.4497 C   0  0  0  0  0  0  0  0  0  0  0  0
   10.9362   -4.3910   25.0711 C   0  0  0  0  0  0  0  0  0  0  0  0
    9.5435   -4.9088   25.4435 C   0  0  0  0  0  0  0  0  0  0  0  0
    7.7491   -1.1814   21.9120 C   0  0  0  0  0  0  0  0  0  0  0  0
    7.7957   -0.4137   20.7423 C   0  0  0  0  0  0  0  0  0  0  0  0
  1  2  1  0
  2  3  1  0
  3  4  1  0
  4  5  2  0
  5  6  1  0
  6  7  2  0
  7  8  1  0
  8  9  1  0
  9 10  1  0
 10 11  1  0
 11 12  1  0
 12 13  1  0
 13 14  1  0
 14 15  1  0
 15 16  1  0
 16 17  2  0
 16 18  1  0
 18 19  1  0
 19 20  2  0
 20 21  1  0
 21 22  2  0
 22 23  1  0
 23 24  1  0
 24 25  1  0
 24 26  2  0
 24 27  2  0
 23 28  2  0
 13 29  1  0
 29 30  1  0
  7 31  1  0
 31 32  2  0
 32  4  1  0
 30 10  1  0
 28 19  1  0
M  END
