
     RDKit          3D

 32 36  0  0  0  0  0  0  0  0999 V2000
    5.6825   -1.2706   26.3132 C   0  0  0  0  0  0  0  0  0  0  0  0
    6.3681   -0.0658   26.7112 N   0  0  0  0  0  0  0  0  0  0  0  0
    7.0589    0.1061   27.8744 C   0  0  0  0  0  0  0  0  0  0  0  0
    7.6109    1.2959   27.9425 N   0  0  0  0  0  0  0  0  0  0  0  0
    7.2387    1.9288   26.7847 C   0  0  0  0  0  0  0  0  0  0  0  0
    7.5504    3.2196   26.3446 C   0  0  0  0  0  0  0  0  0  0  0  0
    7.0445    3.6264   25.1033 C   0  0  0  0  0  0  0  0  0  0  0  0
    7.3605    4.9847   24.6281 C   0  0  0  0  0  0  0  0  0  0  0  0
    6.8549    5.9355   25.2143 O   0  0  0  0  0  0  0  0  0  0  0  0
    8.2440    5.1294   23.5590 N   0  0  0  0  0  0  0  0  0  0  0  0
    9.0457    3.9697   23.1745 C   0  0  0  0  0  0  0  0  0  0  0  0
   10.3165    3.7826   24.0179 C   0  0  1  0  0  0  0  0  0  0  0  0
   10.9535    2.4936   23.7264 N   0  0  0  0  0  0  0  0  0  0  0  0
   11.4763    2.1349   22.5048 C   0  0  0  0  0  0  0  0  0  0  0  0
   11.9896    0.9226   22.5216 N   0  0  0  0  0  0  0  0  0  0  0  0
   11.8102    0.4830   23.8174 C   0  0  0  0  0  0  0  0  0  0  0  0
   11.1716    1.4477   24.5831 C   0  0  0  0  0  0  0  0  0  0  0  0
   10.8448    1.3618   25.8850 N   0  0  0  0  0  0  0  0  0  0  0  0
   11.2393    0.1809   26.4052 C   0  0  0  0  0  0  0  0  0  0  0  0
   11.8698   -0.8396   25.7863 N   0  0  0  0  0  0  0  0  0  0  0  0
   12.1582   -0.7131   24.4690 C   0  0  0  0  0  0  0  0  0  0  0  0
   12.8001   -1.7675   23.8329 N   0  0  0  0  0  0  0  0  0  0  0  0
   11.3205    4.9837   23.9821 C   0  0  2  0  0  0  0  0  0  0  0  0
   11.9334    5.2943   22.6137 C   0  0  0  0  0  0  0  0  0  0  0  0
   12.4233    4.6658   24.8674 O   0  0  0  0  0  0  0  0  0  0  0  0
   10.6991    6.2524   24.6110 C   0  0  0  0  0  0  0  0  0  0  0  0
    9.7681    7.1281   23.7642 C   0  0  2  0  0  0  0  0  0  0  0  0
    9.2047    8.0951   24.6641 O   0  0  0  0  0  0  0  0  0  0  0  0
    8.6449    6.4136   22.9873 C   0  0  0  0  0  0  0  0  0  0  0  0
    6.2355    2.7928   24.3267 C   0  0  0  0  0  0  0  0  0  0  0  0
    5.9352    1.4940   24.7463 C   0  0  0  0  0  0  0  0  0  0  0  0
    6.4528    1.0965   25.9875 C   0  0  0  0  0  0  0  0  0  0  0  0
  1  2  1  0
  2  3  1  0
  3  4  2  0
  4  5  1  0
  5  6  2  0
  6  7  1  0
  7  8  1  0
  8  9  2  0
  8 10  1  0
 10 11  1  0
 11 12  1  0
 12 13  1  6
 13 14  1  0
 14 15  2  0
 15 16  1  0
 16 17  2  0
 17 18  1  0
 18 19  2  0
 19 20  1  0
 20 21  2  0
 21 22  1  0
 12 23  1  0
 23 24  1  6
 23 25  1  0
 23 26  1  0
 26 27  1  0
 27 28  1  1
 27 29  1  0
  7 30  2  0
 30 31  1  0
 31 32  2  0
 32  2  1  0
 32  5  1  0
 29 10  1  0
 17 13  1  0
 21 16  1  0
M  END
