
     RDKit          3D

 26 29  0  0  0  0  0  0  0  0999 V2000
    8.7858   14.4751   23.6224 C   0  0  0  0  0  0  0  0  0  0  0  0
    8.5230   14.1765   25.0770 C   0  0  0  0  0  0  0  0  0  0  0  0
    8.5123   15.0930   25.8991 O   0  0  0  0  0  0  0  0  0  0  0  0
    8.2817   12.8467   25.4228 N   0  0  0  0  0  0  0  0  0  0  0  0
    7.7644   11.9730   24.3736 C   0  0  0  0  0  0  0  0  0  0  0  0
    8.1791   10.5250   24.5808 C   0  0  0  0  0  0  0  0  0  0  0  0
    7.8061   10.0294   25.9864 C   0  0  2  0  0  0  0  0  0  0  0  0
    8.4355   10.9605   27.0495 C   0  0  1  0  0  0  0  0  0  0  0  0
    8.0131   12.4187   26.7942 C   0  0  0  0  0  0  0  0  0  0  0  0
    8.1000   10.5847   28.5057 C   0  0  0  0  0  0  0  0  0  0  0  0
    8.1035    9.0998   28.8666 C   0  0  0  0  0  0  0  0  0  0  0  0
    9.2749    8.2812   28.3256 C   0  0  0  0  0  0  0  0  0  0  0  0
    9.4318    8.2798   26.8033 C   0  0  0  0  0  0  0  0  0  0  0  0
    8.1845    8.6054   26.1105 N   0  0  0  0  0  0  0  0  0  0  0  0
    7.2694    7.6491   25.6489 C   0  0  0  0  0  0  0  0  0  0  0  0
    6.2240    7.9590   25.0824 O   0  0  0  0  0  0  0  0  0  0  0  0
    7.5903    6.2548   25.8784 C   0  0  0  0  0  0  0  0  0  0  0  0
    7.1189    5.4893   26.9349 C   0  0  0  0  0  0  0  0  0  0  0  0
    6.2396    5.7779   28.0865 C   0  0  0  0  0  0  0  0  0  0  0  0
    7.6025    4.2126   26.8578 O   0  0  0  0  0  0  0  0  0  0  0  0
    8.3462    4.1599   25.7309 C   0  0  0  0  0  0  0  0  0  0  0  0
    8.3752    5.3736   25.0850 C   0  0  0  0  0  0  0  0  0  0  0  0
    9.0982    5.5683   23.8007 C   0  0  0  0  0  0  0  0  0  0  0  0
   10.0940    4.4129   23.5550 C   0  0  0  0  0  0  0  0  0  0  0  0
    9.4854    3.0283   23.8694 C   0  0  0  0  0  0  0  0  0  0  0  0
    9.0201    2.9043   25.3354 C   0  0  0  0  0  0  0  0  0  0  0  0
  1  2  1  0
  2  3  2  0
  2  4  1  0
  4  5  1  0
  5  6  1  0
  7  6  1  6
  7  8  1  0
  8  9  1  6
  8 10  1  0
 10 11  1  0
 11 12  1  0
 12 13  1  0
 13 14  1  0
 14 15  1  0
 15 16  2  0
 15 17  1  0
 17 18  2  0
 18 19  1  0
 18 20  1  0
 20 21  1  0
 21 22  2  0
 22 23  1  0
 23 24  1  0
 24 25  1  0
 25 26  1  0
  9  4  1  0
 22 17  1  0
 14  7  1  0
 26 21  1  0
M  END
