
     RDKit          3D

 24 26  0  0  0  0  0  0  0  0999 V2000
   10.6164   -1.8621   22.7298 C   0  0  0  0  0  0  0  0  0  0  0  0
    9.2243   -2.0350   22.9601 O   0  0  0  0  0  0  0  0  0  0  0  0
    8.3666   -1.2038   22.2913 C   0  0  0  0  0  0  0  0  0  0  0  0
    8.7581   -0.0463   21.6095 C   0  0  0  0  0  0  0  0  0  0  0  0
    7.8150    0.7303   20.9254 C   0  0  0  0  0  0  0  0  0  0  0  0
    6.4727    0.3573   20.9068 C   0  0  0  0  0  0  0  0  0  0  0  0
    6.0660   -0.7865   21.5884 C   0  0  0  0  0  0  0  0  0  0  0  0
    7.0051   -1.5454   22.3014 C   0  0  0  0  0  0  0  0  0  0  0  0
    6.5104   -2.7587   22.9801 C   0  0  0  0  0  0  0  0  0  0  0  0
    6.2189   -3.7193   22.2692 O   0  0  0  0  0  0  0  0  0  0  0  0
    6.3551   -2.7603   24.3621 N   0  0  0  0  0  0  0  0  0  0  0  0
    6.6276   -1.6654   25.3037 C   0  0  1  0  0  0  0  0  0  0  0  0
    5.6784   -0.4549   25.1552 C   0  0  0  0  0  0  0  0  0  0  0  0
    6.3539    0.7352   24.6284 N   0  0  0  0  0  0  0  0  0  0  0  0
    6.4783   -2.3172   26.6879 C   0  0  0  0  0  0  0  0  0  0  0  0
    6.7459   -3.8224   26.4592 C   0  0  2  0  0  0  0  0  0  0  0  0
    8.2769   -4.0599   26.3987 C   0  0  0  0  0  0  0  0  0  0  0  0
    6.1398   -4.0415   25.0513 C   0  0  1  0  0  0  0  0  0  0  0  0
    4.6505   -4.4221   25.0134 C   0  0  0  0  0  0  0  0  0  0  0  0
    4.4261   -5.9236   25.1906 C   0  0  0  0  0  0  0  0  0  0  0  0
    4.5796   -6.4416   26.6153 C   0  0  0  0  0  0  0  0  0  0  0  0
    5.9184   -6.1384   27.2842 C   0  0  0  0  0  0  0  0  0  0  0  0
    6.0986   -4.6494   27.5969 C   0  0  1  0  0  0  0  0  0  0  0  0
    6.8926   -4.5520   28.7854 O   0  0  0  0  0  0  0  0  0  0  0  0
  1  2  1  0
  2  3  1  0
  3  4  2  0
  4  5  1  0
  5  6  2  0
  6  7  1  0
  7  8  2  0
  8  9  1  0
  9 10  2  0
  9 11  1  0
 11 12  1  0
 12 13  1  1
 13 14  1  0
 12 15  1  0
 15 16  1  0
 16 17  1  6
 16 18  1  0
 18 19  1  1
 19 20  1  0
 20 21  1  0
 21 22  1  0
 22 23  1  0
 23 24  1  1
  8  3  1  0
 18 11  1  0
 23 16  1  0
M  END
