
     RDKit          3D

 30 32  0  0  0  0  0  0  0  0999 V2000
    4.5731   13.1916   25.4361 C   0  0  0  0  0  0  0  0  0  0  0  0
    5.4689   12.7019   24.4176 N   0  0  0  0  0  0  0  0  0  0  0  0
    6.0560   11.4562   24.5383 C   0  0  0  0  0  0  0  0  0  0  0  0
    5.8703   10.7207   25.5030 O   0  0  0  0  0  0  0  0  0  0  0  0
    6.9699   11.0990   23.3778 C   0  0  0  0  0  0  0  0  0  0  0  0
    7.5849    9.7294   23.5002 C   0  0  0  0  0  0  0  0  0  0  0  0
    8.7063    9.4895   24.2910 C   0  0  0  0  0  0  0  0  0  0  0  0
    9.3835   10.5783   25.0732 C   0  0  0  0  0  0  0  0  0  0  0  0
    9.2612    8.2646   24.4173 N   0  0  0  0  0  0  0  0  0  0  0  0
    8.7027    7.2557   23.7297 C   0  0  0  0  0  0  0  0  0  0  0  0
    9.3108    5.8904   23.8399 C   0  0  2  0  0  0  0  0  0  0  0  0
    9.9411    5.3596   22.5483 C   0  0  0  0  0  0  0  0  0  0  0  0
   10.0064    3.8604   22.8019 C   0  0  0  0  0  0  0  0  0  0  0  0
    8.8598    3.5822   23.6451 N   0  0  0  0  0  0  0  0  0  0  0  0
    8.4171    2.2938   23.8539 C   0  0  0  0  0  0  0  0  0  0  0  0
    8.9140    1.3025   23.3265 O   0  0  0  0  0  0  0  0  0  0  0  0
    7.2449    2.1082   24.7257 C   0  0  0  0  0  0  0  0  0  0  0  0
    5.9950    1.9465   24.1230 C   0  0  0  0  0  0  0  0  0  0  0  0
    4.8685    1.7673   24.9220 C   0  0  0  0  0  0  0  0  0  0  0  0
    4.9901    1.7494   26.3167 C   0  0  0  0  0  0  0  0  0  0  0  0
    6.2416    1.9014   26.9270 C   0  0  0  0  0  0  0  0  0  0  0  0
    6.4553    1.9032   28.2811 O   0  0  0  0  0  0  0  0  0  0  0  0
    5.3206    1.7454   29.1212 C   0  0  0  0  0  0  0  0  0  0  0  0
    7.3794    2.0554   26.1177 C   0  0  0  0  0  0  0  0  0  0  0  0
    8.6168    2.2356   26.6890 O   0  0  0  0  0  0  0  0  0  0  0  0
    9.5769    1.3947   26.0475 C   0  0  0  0  0  0  0  0  0  0  0  0
    8.2839    4.8136   24.1821 C   0  0  0  0  0  0  0  0  0  0  0  0
    7.6388    7.3928   22.9243 N   0  0  0  0  0  0  0  0  0  0  0  0
    7.0999    8.6261   22.8024 C   0  0  0  0  0  0  0  0  0  0  0  0
    5.9310    8.7198   21.8644 C   0  0  0  0  0  0  0  0  0  0  0  0
  1  2  1  0
  2  3  1  0
  3  4  2  0
  3  5  1  0
  5  6  1  0
  6  7  2  0
  7  8  1  0
  7  9  1  0
  9 10  2  0
 11 10  1  6
 11 12  1  0
 12 13  1  0
 13 14  1  0
 14 15  1  0
 15 16  2  0
 15 17  1  0
 17 18  2  0
 18 19  1  0
 19 20  2  0
 20 21  1  0
 21 22  1  0
 22 23  1  0
 21 24  2  0
 24 25  1  0
 25 26  1  0
 14 27  1  0
 10 28  1  0
 28 29  2  0
 29 30  1  0
 29  6  1  0
 27 11  1  0
 24 17  1  0
M  END
