
     RDKit          3D

 33 36  0  0  0  0  0  0  0  0999 V2000
    4.6592   14.2827   30.8346 C   0  0  0  0  0  0  0  0  0  0  0  0
    4.8420   12.8740   30.7791 O   0  0  0  0  0  0  0  0  0  0  0  0
    6.0067   12.4065   30.2275 C   0  0  0  0  0  0  0  0  0  0  0  0
    7.2674   12.5458   30.8133 C   0  0  0  0  0  0  0  0  0  0  0  0
    8.4034   12.0481   30.1699 C   0  0  0  0  0  0  0  0  0  0  0  0
    8.2923   11.4199   28.9296 C   0  0  0  0  0  0  0  0  0  0  0  0
    7.0415   11.2764   28.3086 C   0  0  0  0  0  0  0  0  0  0  0  0
    6.9417   10.5808   26.9655 C   0  0  0  0  0  0  0  0  0  0  0  0
    5.8489    9.5937   26.8818 N   0  0  0  0  0  0  0  0  0  0  0  0
    5.6756    8.7872   28.1066 C   0  0  0  0  0  0  0  0  0  0  0  0
    6.8062    7.8232   28.4960 C   0  0  0  0  0  0  0  0  0  0  0  0
    6.8347    6.6103   27.6376 C   0  0  0  0  0  0  0  0  0  0  0  0
    6.7241    5.3617   28.0357 N   0  0  0  0  0  0  0  0  0  0  0  0
    6.7879    4.5560   26.9293 N   0  0  0  0  0  0  0  0  0  0  0  0
    6.9409    5.3221   25.8640 C   0  0  0  0  0  0  0  0  0  0  0  0
    7.0733    4.8362   24.4476 C   0  0  1  0  0  0  0  0  0  0  0  0
    8.4721    4.4895   24.2488 N   0  0  0  0  0  0  0  0  0  0  0  0
    9.2191    4.9551   23.1943 C   0  0  0  0  0  0  0  0  0  0  0  0
    8.7623    5.7167   22.3476 O   0  0  0  0  0  0  0  0  0  0  0  0
   10.6562    4.4510   23.2054 C   0  0  1  0  0  0  0  0  0  0  0  0
   11.6083    5.4449   22.5703 C   0  0  0  0  0  0  0  0  0  0  0  0
   11.9883    6.3242   23.7426 C   0  0  0  0  0  0  0  0  0  0  0  0
   12.0206    5.4688   24.8886 O   0  0  0  0  0  0  0  0  0  0  0  0
   11.2180    4.3062   24.6104 C   0  0  0  0  0  0  0  0  0  0  0  0
    6.1268    3.6430   24.1514 C   0  0  0  0  0  0  0  0  0  0  0  0
    6.3971    2.9668   22.8019 C   0  0  0  0  0  0  0  0  0  0  0  0
    4.6549    4.0608   24.2293 C   0  0  0  0  0  0  0  0  0  0  0  0
    6.9674    6.6318   26.2738 N   0  0  0  0  0  0  0  0  0  0  0  0
    7.0884    7.8286   25.4716 C   0  0  0  0  0  0  0  0  0  0  0  0
    5.9015    8.7892   25.6503 C   0  0  0  0  0  0  0  0  0  0  0  0
    5.8994   11.7405   28.9889 C   0  0  0  0  0  0  0  0  0  0  0  0
    4.6801   11.5793   28.3697 O   0  0  0  0  0  0  0  0  0  0  0  0
    4.5070   12.5311   27.3165 C   0  0  0  0  0  0  0  0  0  0  0  0
  1  2  1  0
  2  3  1  0
  3  4  2  0
  4  5  1  0
  5  6  2  0
  6  7  1  0
  7  8  1  0
  8  9  1  0
  9 10  1  0
 10 11  1  0
 11 12  1  0
 12 13  2  0
 13 14  1  0
 14 15  2  0
 15 16  1  0
 16 17  1  1
 17 18  1  0
 18 19  2  0
 20 18  1  1
 20 21  1  0
 21 22  1  0
 22 23  1  0
 23 24  1  0
 16 25  1  0
 25 26  1  0
 25 27  1  0
 15 28  1  0
 28 29  1  0
 29 30  1  0
  7 31  2  0
 31 32  1  0
 32 33  1  0
 31  3  1  0
 30  9  1  0
 28 12  1  0
 24 20  1  0
M  END
