
     RDKit          3D

 16 19  0  0  0  0  0  0  0  0999 V2000
   10.7395    1.3203   22.4790 O   0  0  0  0  0  0  0  0  0  0  0  0
   11.0021    0.3052   23.1126 C   0  0  0  0  0  0  0  0  0  0  0  0
    9.9183   -0.7497   23.4825 C   0  0  2  0  0  0  0  0  0  0  0  0
    9.1596   -0.7136   24.8137 C   0  0  0  0  0  0  0  0  0  0  0  0
    9.4683   -2.0554   25.5793 C   0  0  0  0  0  0  0  0  0  0  0  0
   10.4102   -2.8880   24.7027 C   0  0  2  0  0  0  0  0  0  0  0  0
   11.8333   -3.3082   25.1746 C   0  0  0  0  0  0  0  0  0  0  0  0
   12.0502   -4.3779   25.7308 O   0  0  0  0  0  0  0  0  0  0  0  0
   12.9194   -2.2416   24.8301 C   0  0  1  0  0  0  0  0  0  0  0  0
   14.0235   -1.9287   26.3742 Br  0  0  0  0  0  0  0  0  0  0  0  0
   13.7099   -2.2582   23.5195 C   0  0  0  0  0  0  0  0  0  0  0  0
   13.4003   -0.9120   22.7513 C   0  0  0  0  0  0  0  0  0  0  0  0
   12.4264   -0.0984   23.6070 C   0  0  1  0  0  0  0  0  0  0  0  0
   13.2561    1.4075   24.4705 Br  0  0  0  0  0  0  0  0  0  0  0  0
   11.9707   -1.1225   24.5848 C   0  0  1  0  0  0  0  0  0  0  0  0
   10.8832   -1.8466   23.7542 C   0  0  2  0  0  0  0  0  0  0  0  0
  1  2  2  0
  2  3  1  0
  3  4  1  1
  4  5  1  0
  6  5  1  1
  6  7  1  0
  7  8  2  0
  7  9  1  0
  9 10  1  1
  9 11  1  0
 11 12  1  0
 12 13  1  0
 13 14  1  1
 15 13  1  6
 15 16  1  0
 13  2  1  0
 16  3  1  1
 16  6  1  0
 15  9  1  0
M  END
