
     RDKit          3D

 34 36  0  0  0  0  0  0  0  0999 V2000
   14.9716   -2.3962   25.4807 O   0  0  0  0  0  0  0  0  0  0  0  0
   14.1038   -1.2580   25.5942 C   0  0  1  0  0  0  0  0  0  0  0  0
   14.1249   -0.4656   24.2715 C   0  0  0  0  0  0  0  0  0  0  0  0
   13.4662    0.8470   24.3664 N   0  0  0  0  0  0  0  0  0  0  0  0
   13.5134    1.5906   23.1098 C   0  0  0  0  0  0  0  0  0  0  0  0
   12.7961    2.9153   23.2313 C   0  0  0  0  0  0  0  0  0  0  0  0
   11.4102    2.9950   23.0298 C   0  0  0  0  0  0  0  0  0  0  0  0
   10.7425    4.2143   23.1572 C   0  0  0  0  0  0  0  0  0  0  0  0
   11.4535    5.3693   23.4773 C   0  0  0  0  0  0  0  0  0  0  0  0
   12.8320    5.3054   23.6743 C   0  0  0  0  0  0  0  0  0  0  0  0
   13.5010    4.0852   23.5532 C   0  0  0  0  0  0  0  0  0  0  0  0
   12.6824   -1.7304   25.9349 C   0  0  0  0  0  0  0  0  0  0  0  0
   11.8806   -1.8790   24.7535 O   0  0  0  0  0  0  0  0  0  0  0  0
   10.9008   -2.9119   24.8489 C   0  0  0  0  0  0  0  0  0  0  0  0
    9.8791   -2.7647   23.7115 C   0  0  0  0  0  0  0  0  0  0  0  0
    9.3019   -1.3415   23.7090 C   0  0  0  0  0  0  0  0  0  0  0  0
    8.2155   -1.1586   22.6511 C   0  0  0  0  0  0  0  0  0  0  0  0
    7.0948   -2.1942   22.8214 C   0  0  0  0  0  0  0  0  0  0  0  0
    5.9778   -1.9922   21.7900 C   0  0  0  0  0  0  0  0  0  0  0  0
    6.4808   -1.3326   20.6283 O   0  0  0  0  0  0  0  0  0  0  0  0
    5.5900   -0.2922   20.1942 C   0  0  0  0  0  0  0  0  0  0  0  0
    6.0469    0.2126   18.8204 C   0  0  1  0  0  0  0  0  0  0  0  0
    6.3589   -0.9256   18.0006 O   0  0  0  0  0  0  0  0  0  0  0  0
    4.9885    1.0712   18.0987 C   0  0  0  0  0  0  0  0  0  0  0  0
    4.5790    2.2392   18.8872 N   0  0  0  0  0  0  0  0  0  0  0  0
    3.3333    1.9991   19.6229 C   0  0  0  0  0  0  0  0  0  0  0  0
    2.9227    3.1725   20.4819 C   0  0  0  0  0  0  0  0  0  0  0  0
    3.8956    4.0242   21.0286 C   0  0  0  0  0  0  0  0  0  0  0  0
    3.5221    5.1257   21.8016 C   0  0  0  0  0  0  0  0  0  0  0  0
    2.1733    5.3853   22.0390 C   0  0  0  0  0  0  0  0  0  0  0  0
    1.1979    4.5439   21.5054 C   0  0  0  0  0  0  0  0  0  0  0  0
    1.5699    3.4432   20.7293 C   0  0  0  0  0  0  0  0  0  0  0  0
    7.6826   -3.6102   22.7501 C   0  0  0  0  0  0  0  0  0  0  0  0
    8.7628   -3.8166   23.8111 C   0  0  0  0  0  0  0  0  0  0  0  0
  2  1  1  6
  2  3  1  0
  3  4  1  0
  4  5  1  0
  5  6  1  0
  6  7  2  0
  7  8  1  0
  8  9  2  0
  9 10  1  0
 10 11  2  0
  2 12  1  0
 12 13  1  0
 13 14  1  0
 14 15  1  0
 15 16  1  0
 16 17  1  0
 17 18  1  0
 18 19  1  0
 19 20  1  0
 20 21  1  0
 21 22  1  0
 22 23  1  6
 22 24  1  0
 24 25  1  0
 25 26  1  0
 26 27  1  0
 27 28  2  0
 28 29  1  0
 29 30  2  0
 30 31  1  0
 31 32  2  0
 18 33  1  0
 33 34  1  0
 11  6  1  0
 34 15  1  0
 32 27  1  0
M  END
