
     RDKit          3D

 22 24  0  0  0  0  0  0  0  0999 V2000
    9.8454   -1.7521   23.7131 C   0  0  0  0  0  0  0  0  0  0  0  0
    8.7392   -0.8648   23.7668 O   0  0  0  0  0  0  0  0  0  0  0  0
    8.2281   -0.3740   22.5068 C   0  0  2  0  0  0  0  0  0  0  0  0
    9.4776    0.1442   21.7632 C   0  0  0  0  0  0  0  0  0  0  0  0
    9.7662    1.4695   22.4599 C   0  0  0  0  0  0  0  0  0  0  0  0
    8.4673    1.9674   22.8783 N   0  0  0  0  0  0  0  0  0  0  0  0
    8.3609    3.2178   23.4515 C   0  0  0  0  0  0  0  0  0  0  0  0
    7.2978    3.7289   23.7902 O   0  0  0  0  0  0  0  0  0  0  0  0
    9.5825    4.0099   23.6194 C   0  0  0  0  0  0  0  0  0  0  0  0
   10.7057    3.4275   24.2212 C   0  0  0  0  0  0  0  0  0  0  0  0
   11.8811    4.1699   24.3501 C   0  0  0  0  0  0  0  0  0  0  0  0
   11.9302    5.4805   23.8699 C   0  0  0  0  0  0  0  0  0  0  0  0
   10.8070    6.0388   23.2607 C   0  0  0  0  0  0  0  0  0  0  0  0
   10.8693    7.2992   22.8092 F   0  0  0  0  0  0  0  0  0  0  0  0
    9.6335    5.3080   23.1263 C   0  0  0  0  0  0  0  0  0  0  0  0
    8.5594    5.8718   22.5544 F   0  0  0  0  0  0  0  0  0  0  0  0
    7.4181    0.9473   22.6760 C   0  0  1  0  0  0  0  0  0  0  0  0
    6.5761    1.3177   21.4420 C   0  0  0  0  0  0  0  0  0  0  0  0
    5.7983    0.1379   20.8790 C   0  0  2  0  0  0  0  0  0  0  0  0
    4.8644   -0.3016   21.8608 O   0  0  0  0  0  0  0  0  0  0  0  0
    6.7375   -1.0046   20.5090 C   0  0  0  0  0  0  0  0  0  0  0  0
    7.5192   -1.4918   21.7256 C   0  0  0  0  0  0  0  0  0  0  0  0
  1  2  1  0
  3  2  1  1
  3  4  1  0
  4  5  1  0
  5  6  1  0
  6  7  1  0
  7  8  2  0
  7  9  1  0
  9 10  2  0
 10 11  1  0
 11 12  2  0
 12 13  1  0
 13 14  1  0
 13 15  2  0
 15 16  1  0
  6 17  1  0
 17 18  1  6
 18 19  1  0
 19 20  1  1
 19 21  1  0
 21 22  1  0
 17  3  1  0
 22  3  1  0
 15  9  1  0
M  END
