
     RDKit          3D

 12 12  0  0  0  0  0  0  0  0999 V2000
   11.3495   -2.3646   23.6983 C   0  0  0  0  0  0  0  0  0  0  0  0
   11.7872   -0.9237   23.6310 C   0  0  0  0  0  0  0  0  0  0  0  0
   10.9911    0.0640   23.0199 C   0  0  0  0  0  0  0  0  0  0  0  0
    9.3149   -0.3306   22.2088 Br  0  0  0  0  0  0  0  0  0  0  0  0
   11.4063    1.4009   22.9672 C   0  0  0  0  0  0  0  0  0  0  0  0
   12.6352    1.7688   23.5048 C   0  0  0  0  0  0  0  0  0  0  0  0
   13.2535    3.7505   23.4143 I   0  0  0  0  0  0  0  0  0  0  0  0
   13.4598    0.8129   24.0870 C   0  0  0  0  0  0  0  0  0  0  0  0
   13.0420   -0.5269   24.1463 C   0  0  0  0  0  0  0  0  0  0  0  0
   13.9896   -1.5139   24.7271 C   0  0  0  0  0  0  0  0  0  0  0  0
   14.0760   -1.5353   26.0911 N   0  0  0  0  0  0  0  0  0  0  0  0
   14.6480   -2.2724   24.0309 O   0  0  0  0  0  0  0  0  0  0  0  0
  1  2  1  0
  2  3  2  0
  3  4  1  0
  3  5  1  0
  5  6  2  0
  6  7  1  0
  6  8  1  0
  8  9  2  0
  9 10  1  0
 10 11  1  0
 10 12  2  0
  9  2  1  0
M  END
