
     RDKit          3D

 34 36  0  0  0  0  0  0  0  0999 V2000
    7.1812   -7.0426   30.9982 C   0  0  0  0  0  0  0  0  0  0  0  0
    6.6035   -6.1818   29.8816 C   0  0  0  0  0  0  0  0  0  0  0  0
    7.4512   -6.1333   28.6793 N   0  0  0  0  0  0  0  0  0  0  0  0
    8.7938   -5.5815   28.9582 C   0  0  0  0  0  0  0  0  0  0  0  0
    9.6502   -5.4427   27.6755 C   0  0  0  0  0  0  0  0  0  0  0  0
    8.9952   -4.6113   26.6476 N   0  0  0  0  0  0  0  0  0  0  0  0
    9.8297   -4.5255   25.4402 C   0  0  0  0  0  0  0  0  0  0  0  0
    9.0710   -4.0477   24.2085 C   0  0  0  0  0  0  0  0  0  0  0  0
    8.2834   -4.9933   23.5187 C   0  0  0  0  0  0  0  0  0  0  0  0
    7.5105   -4.6294   22.4193 C   0  0  0  0  0  0  0  0  0  0  0  0
    7.4939   -3.3079   21.9999 C   0  0  0  0  0  0  0  0  0  0  0  0
    8.2607   -2.3534   22.6713 C   0  0  0  0  0  0  0  0  0  0  0  0
    9.0759   -2.6999   23.7699 C   0  0  0  0  0  0  0  0  0  0  0  0
    9.8888   -1.6479   24.5107 C   0  0  0  0  0  0  0  0  0  0  0  0
   11.0923   -1.2501   23.7896 N   0  0  0  0  0  0  0  0  0  0  0  0
   11.4869    0.0791   23.6218 C   0  0  0  0  0  0  0  0  0  0  0  0
   10.6294    1.0410   23.0610 C   0  0  0  0  0  0  0  0  0  0  0  0
   11.0606    2.3448   22.7820 C   0  0  0  0  0  0  0  0  0  0  0  0
   12.3843    2.7135   23.0361 C   0  0  0  0  0  0  0  0  0  0  0  0
   12.9316    4.3398   22.5862 S   0  0  0  0  0  0  0  0  0  0  0  0
   13.3956    4.2577   21.2169 O   0  0  0  0  0  0  0  0  0  0  0  0
   13.7894    4.8421   23.6350 O   0  0  0  0  0  0  0  0  0  0  0  0
   11.5267    5.2340   22.5325 N   0  0  0  0  0  0  0  0  0  0  0  0
   10.8513    5.9471   23.6327 C   0  0  0  0  0  0  0  0  0  0  0  0
   11.7438    6.9790   24.3254 C   0  0  0  0  0  0  0  0  0  0  0  0
   10.3111    4.9293   24.6422 C   0  0  0  0  0  0  0  0  0  0  0  0
    9.6562    6.6914   23.0010 C   0  0  0  0  0  0  0  0  0  0  0  0
   13.2827    1.7876   23.5615 C   0  0  0  0  0  0  0  0  0  0  0  0
   12.8253    0.4901   23.8545 C   0  0  0  0  0  0  0  0  0  0  0  0
   13.8025   -0.4484   24.4104 N   0  0  0  0  0  0  0  0  0  0  0  0
   13.9359   -0.4798   25.6455 O   0  0  0  0  0  0  0  0  0  0  0  0
   14.4626   -1.1278   23.6115 O   0  0  0  0  0  0  0  0  0  0  0  0
    7.6573   -5.1677   26.3601 C   0  0  0  0  0  0  0  0  0  0  0  0
    6.8010   -5.2991   27.6413 C   0  0  0  0  0  0  0  0  0  0  0  0
  1  2  1  0
  2  3  1  0
  3  4  1  0
  4  5  1  0
  5  6  1  0
  6  7  1  0
  7  8  1  0
  8  9  2  0
  9 10  1  0
 10 11  2  0
 11 12  1  0
 12 13  2  0
 13 14  1  0
 14 15  1  0
 15 16  1  0
 16 17  2  0
 17 18  1  0
 18 19  2  0
 19 20  1  0
 20 21  2  0
 20 22  2  0
 20 23  1  0
 23 24  1  0
 24 25  1  0
 24 26  1  0
 24 27  1  0
 19 28  1  0
 28 29  2  0
 29 30  1  0
 30 31  2  0
 30 32  1  0
  6 33  1  0
 33 34  1  0
 34  3  1  0
 13  8  1  0
 29 16  1  0
M  CHG  2  30   1  32  -1
M  END
