
     RDKit          3D

 11 11  0  0  0  0  0  0  0  0999 V2000
   15.0416   -3.2188   26.6895 O   0  0  0  0  0  0  0  0  0  0  0  0
   14.4892   -2.2151   25.8435 C   0  0  0  0  0  0  0  0  0  0  0  0
   13.1062   -2.5763   25.3644 C   0  0  0  0  0  0  0  0  0  0  0  0
   12.4184   -3.6980   25.8550 C   0  0  0  0  0  0  0  0  0  0  0  0
   11.1383   -4.0052   25.3905 C   0  0  0  0  0  0  0  0  0  0  0  0
   10.2355   -5.5223   26.0693 Br  0  0  0  0  0  0  0  0  0  0  0  0
   10.5170   -3.2076   24.4323 C   0  0  0  0  0  0  0  0  0  0  0  0
   11.1886   -2.0906   23.9364 C   0  0  0  0  0  0  0  0  0  0  0  0
   10.2362   -0.9092   22.4996 I   0  0  0  0  0  0  0  0  0  0  0  0
   12.4736   -1.7783   24.3997 C   0  0  0  0  0  0  0  0  0  0  0  0
   13.1582   -0.6871   23.9308 O   0  0  0  0  0  0  0  0  0  0  0  0
  1  2  1  0
  2  3  1  0
  3  4  2  0
  4  5  1  0
  5  6  1  0
  5  7  2  0
  7  8  1  0
  8  9  1  0
  8 10  2  0
 10 11  1  0
 10  3  1  0
M  END
