
     RDKit          3D

 11 11  0  0  0  0  0  0  0  0999 V2000
    9.8421   -6.6684   26.0468 O   0  0  0  0  0  0  0  0  0  0  0  0
    9.6912   -5.3557   26.5687 C   0  0  0  0  0  0  0  0  0  0  0  0
   10.4497   -4.3612   25.7291 C   0  0  0  0  0  0  0  0  0  0  0  0
    9.8430   -3.7078   24.6463 C   0  0  0  0  0  0  0  0  0  0  0  0
   10.5521   -2.7637   23.9006 C   0  0  0  0  0  0  0  0  0  0  0  0
    9.6865   -1.9180   22.4397 Br  0  0  0  0  0  0  0  0  0  0  0  0
   11.8736   -2.4468   24.2294 C   0  0  0  0  0  0  0  0  0  0  0  0
   12.5716   -1.5199   23.5002 O   0  0  0  0  0  0  0  0  0  0  0  0
   12.4821   -3.0809   25.3146 C   0  0  0  0  0  0  0  0  0  0  0  0
   14.4521   -2.6575   25.8808 I   0  0  0  0  0  0  0  0  0  0  0  0
   11.7724   -4.0288   26.0627 C   0  0  0  0  0  0  0  0  0  0  0  0
  1  2  1  0
  2  3  1  0
  3  4  2  0
  4  5  1  0
  5  6  1  0
  5  7  2  0
  7  8  1  0
  7  9  1  0
  9 10  1  0
  9 11  2  0
 11  3  1  0
M  END
