
     RDKit          3D

 29 32  0  0  0  0  0  0  0  0999 V2000
    2.1629    6.3603   28.4063 C   0  0  0  0  0  0  0  0  0  0  0  0
    2.9904    5.3167   27.9116 O   0  0  0  0  0  0  0  0  0  0  0  0
    2.6683    4.7774   26.6921 C   0  0  0  0  0  0  0  0  0  0  0  0
    2.1411    5.4974   25.6160 C   0  0  0  0  0  0  0  0  0  0  0  0
    1.8421    4.8588   24.4007 C   0  0  0  0  0  0  0  0  0  0  0  0
    1.2839    5.6115   23.2690 C   0  0  0  0  0  0  0  0  0  0  0  0
    0.7438    6.9306   23.2601 C   0  0  0  0  0  0  0  0  0  0  0  0
    0.3502    7.2128   21.9637 C   0  0  0  0  0  0  0  0  0  0  0  0
   -0.2421    8.3283   21.3038 N   0  0  0  0  0  0  0  0  0  0  0  0
    0.0669    9.5982   21.8568 C   0  0  0  0  0  0  0  0  0  0  0  0
    0.7558    9.7911   22.8627 O   0  0  0  0  0  0  0  0  0  0  0  0
   -0.4749   10.7930   21.1857 C   0  0  0  0  0  0  0  0  0  0  0  0
   -0.1952   12.0821   21.6570 C   0  0  0  0  0  0  0  0  0  0  0  0
   -0.7231   13.1933   20.9978 C   0  0  0  0  0  0  0  0  0  0  0  0
   -1.5277   13.0170   19.8723 C   0  0  0  0  0  0  0  0  0  0  0  0
   -1.8054   11.7308   19.4052 C   0  0  0  0  0  0  0  0  0  0  0  0
   -1.2733   10.6244   20.0689 C   0  0  0  0  0  0  0  0  0  0  0  0
   -1.5506    9.3439   19.6124 N   0  0  0  0  0  0  0  0  0  0  0  0
   -1.0851    8.1826   20.1836 C   0  0  0  0  0  0  0  0  0  0  0  0
   -1.6577    6.8066   19.4064 S   0  0  0  0  0  0  0  0  0  0  0  0
    0.6546    6.0448   21.2958 N   0  0  0  0  0  0  0  0  0  0  0  0
    1.2138    5.0839   22.0412 N   0  0  0  0  0  0  0  0  0  0  0  0
    2.0852    3.4792   24.2746 C   0  0  0  0  0  0  0  0  0  0  0  0
    2.6137    2.7403   25.3354 C   0  0  0  0  0  0  0  0  0  0  0  0
    2.8759    1.3947   25.3008 O   0  0  0  0  0  0  0  0  0  0  0  0
    2.0674    0.5517   26.1104 C   0  0  0  0  0  0  0  0  0  0  0  0
    2.9176    3.4040   26.5348 C   0  0  0  0  0  0  0  0  0  0  0  0
    3.4012    2.6819   27.6047 O   0  0  0  0  0  0  0  0  0  0  0  0
    4.6839    2.1469   27.2838 C   0  0  0  0  0  0  0  0  0  0  0  0
  1  2  1  0
  2  3  1  0
  3  4  2  0
  4  5  1  0
  5  6  1  0
  6  7  1  0
  7  8  2  0
  8  9  1  0
  9 10  1  0
 10 11  2  0
 10 12  1  0
 12 13  2  0
 13 14  1  0
 14 15  2  0
 15 16  1  0
 16 17  2  0
 17 18  1  0
 18 19  1  0
 19 20  2  0
  8 21  1  0
 21 22  1  0
  5 23  2  0
 23 24  1  0
 24 25  1  0
 25 26  1  0
 24 27  2  0
 27 28  1  0
 28 29  1  0
 27  3  1  0
 22  6  2  0
 19  9  1  0
 17 12  1  0
M  END
