
     RDKit          3D

 29 31  0  0  0  0  0  0  0  0999 V2000
    4.7670   -0.6263   20.8567 C   0  0  0  0  0  0  0  0  0  0  0  0
    5.7962    0.1739   21.4211 O   0  0  0  0  0  0  0  0  0  0  0  0
    7.0200   -0.4140   21.6132 C   0  0  0  0  0  0  0  0  0  0  0  0
    7.2917   -1.7682   21.4038 C   0  0  0  0  0  0  0  0  0  0  0  0
    8.5770   -2.2713   21.6160 C   0  0  0  0  0  0  0  0  0  0  0  0
    9.6059   -1.4246   22.0246 C   0  0  0  0  0  0  0  0  0  0  0  0
    9.3740   -0.0542   22.2179 C   0  0  0  0  0  0  0  0  0  0  0  0
   10.4804    0.8793   22.6809 C   0  0  0  0  0  0  0  0  0  0  0  0
   10.0967    1.8012   23.7691 N   0  0  0  0  0  0  0  0  0  0  0  0
   10.4983    1.2378   25.0818 C   0  0  0  0  0  0  0  0  0  0  0  0
    9.6493    0.0606   25.5448 C   0  0  0  0  0  0  0  0  0  0  0  0
    8.2582    0.1692   25.5759 C   0  0  0  0  0  0  0  0  0  0  0  0
    7.5048   -0.9238   25.9957 C   0  0  0  0  0  0  0  0  0  0  0  0
    8.1538   -2.0921   26.3751 C   0  0  0  0  0  0  0  0  0  0  0  0
    9.5366   -2.1201   26.3185 C   0  0  0  0  0  0  0  0  0  0  0  0
   10.2934   -1.0771   25.9171 N   0  0  0  0  0  0  0  0  0  0  0  0
   10.5621    3.1961   23.5772 C   0  0  0  0  0  0  0  0  0  0  0  0
    9.8274    4.2613   24.4064 C   0  0  0  0  0  0  0  0  0  0  0  0
   10.3390    5.6886   24.1153 C   0  0  0  0  0  0  0  0  0  0  0  0
    9.7823    6.2214   22.7818 C   0  0  0  0  0  0  0  0  0  0  0  0
    9.8150    6.6229   25.2281 C   0  0  0  0  0  0  0  0  0  0  0  0
   11.8007    5.7805   24.1792 N   0  0  0  0  0  0  0  0  0  0  0  0
   12.6150    4.7269   23.5611 C   0  0  0  0  0  0  0  0  0  0  0  0
   12.8005    4.9538   22.0492 C   0  0  0  0  0  0  0  0  0  0  0  0
   14.0124    4.8470   24.2084 C   0  0  0  0  0  0  0  0  0  0  0  0
   12.0701    3.3128   23.8563 C   0  0  0  0  0  0  0  0  0  0  0  0
    8.0618    0.4279   22.0495 C   0  0  0  0  0  0  0  0  0  0  0  0
    7.8410    1.7699   22.2674 O   0  0  0  0  0  0  0  0  0  0  0  0
    8.3466    2.5478   21.1816 C   0  0  0  0  0  0  0  0  0  0  0  0
  1  2  1  0
  2  3  1  0
  3  4  2  0
  4  5  1  0
  5  6  2  0
  6  7  1  0
  7  8  1  0
  8  9  1  0
  9 10  1  0
 10 11  1  0
 11 12  2  0
 12 13  1  0
 13 14  2  0
 14 15  1  0
 15 16  2  0
  9 17  1  0
 17 18  1  0
 18 19  1  0
 19 20  1  0
 19 21  1  0
 19 22  1  0
 22 23  1  0
 23 24  1  0
 23 25  1  0
 23 26  1  0
  7 27  2  0
 27 28  1  0
 28 29  1  0
 27  3  1  0
 16 11  1  0
 26 17  1  0
M  END
