
     RDKit          3D

 32 34  0  0  0  0  0  0  0  0999 V2000
   13.5984   -1.6845   21.0629 C   0  0  0  0  0  0  0  0  0  0  0  0
   13.3792   -2.2405   22.3615 O   0  0  0  0  0  0  0  0  0  0  0  0
   12.4950   -1.4706   23.0705 C   0  0  0  0  0  0  0  0  0  0  0  0
   11.1588   -1.5056   22.6748 C   0  0  0  0  0  0  0  0  0  0  0  0
   10.1973   -0.7465   23.3579 C   0  0  0  0  0  0  0  0  0  0  0  0
    8.7376   -0.7409   22.9191 C   0  0  2  0  0  0  0  0  0  0  0  0
    8.2881   -2.0981   22.6902 N   0  0  0  0  0  0  0  0  0  0  0  0
    7.5165   -2.5503   21.6746 C   0  0  0  0  0  0  0  0  0  0  0  0
    7.2202   -3.7396   21.6351 O   0  0  0  0  0  0  0  0  0  0  0  0
    7.1461   -1.6254   20.7251 N   0  0  0  0  0  0  0  0  0  0  0  0
    6.3437   -2.0984   19.6047 C   0  0  0  0  0  0  0  0  0  0  0  0
    7.1644   -0.1821   21.0601 C   0  0  1  0  0  0  0  0  0  0  0  0
    7.1268    0.5230   19.7977 O   0  0  0  0  0  0  0  0  0  0  0  0
    5.9299    0.2417   21.9487 C   0  0  0  0  0  0  0  0  0  0  0  0
    5.6421   -0.6286   22.9343 F   0  0  0  0  0  0  0  0  0  0  0  0
    4.8209    0.3550   21.1693 F   0  0  0  0  0  0  0  0  0  0  0  0
    6.1132    1.4649   22.4976 F   0  0  0  0  0  0  0  0  0  0  0  0
    8.5277    0.1431   21.6880 C   0  0  1  0  0  0  0  0  0  0  0  0
    8.6278    1.6091   22.0904 C   0  0  0  0  0  0  0  0  0  0  0  0
    8.7556    2.4561   21.2001 O   0  0  0  0  0  0  0  0  0  0  0  0
    8.5869    2.0125   23.4946 C   0  0  0  0  0  0  0  0  0  0  0  0
    7.6872    1.5476   24.4398 C   0  0  0  0  0  0  0  0  0  0  0  0
    7.9004    2.1102   25.7304 C   0  0  0  0  0  0  0  0  0  0  0  0
    8.9633    2.9845   25.7365 C   0  0  0  0  0  0  0  0  0  0  0  0
    9.6919    3.1120   24.1978 S   0  0  0  0  0  0  0  0  0  0  0  0
   10.6053    0.0492   24.4445 C   0  0  0  0  0  0  0  0  0  0  0  0
   11.9412    0.0706   24.8649 C   0  0  0  0  0  0  0  0  0  0  0  0
   12.4091    0.7856   25.9379 O   0  0  0  0  0  0  0  0  0  0  0  0
   11.6355    0.7416   27.1307 C   0  0  0  0  0  0  0  0  0  0  0  0
   12.8813   -0.7173   24.1840 C   0  0  0  0  0  0  0  0  0  0  0  0
   14.1919   -0.6943   24.6006 O   0  0  0  0  0  0  0  0  0  0  0  0
   14.6137   -2.0071   24.9669 C   0  0  0  0  0  0  0  0  0  0  0  0
  1  2  1  0
  2  3  1  0
  3  4  2  0
  4  5  1  0
  6  5  1  6
  6  7  1  0
  7  8  1  0
  8  9  2  0
  8 10  1  0
 10 11  1  0
 10 12  1  0
 12 13  1  6
 12 14  1  0
 14 15  1  0
 14 16  1  0
 14 17  1  0
 12 18  1  0
 18 19  1  1
 19 20  2  0
 19 21  1  0
 21 22  2  0
 22 23  1  0
 23 24  2  0
 24 25  1  0
  5 26  2  0
 26 27  1  0
 27 28  1  0
 28 29  1  0
 27 30  2  0
 30 31  1  0
 31 32  1  0
 30  3  1  0
 18  6  1  0
 25 21  1  0
M  END
