
     RDKit          3D

 25 26  0  0  0  0  0  0  0  0999 V2000
   13.9512   -1.9683   23.3762 C   0  0  0  0  0  0  0  0  0  0  0  0
   13.7571   -0.4709   23.5236 C   0  0  0  0  0  0  0  0  0  0  0  0
   12.5688   -0.0577   22.8332 O   0  0  0  0  0  0  0  0  0  0  0  0
   11.4179   -0.1307   23.5474 C   0  0  0  0  0  0  0  0  0  0  0  0
   11.3291   -0.3457   24.7457 O   0  0  0  0  0  0  0  0  0  0  0  0
   10.2392    0.0969   22.6676 C   0  0  0  0  0  0  0  0  0  0  0  0
    9.6816    1.3640   22.4640 C   0  0  0  0  0  0  0  0  0  0  0  0
    8.5691    1.5181   21.6264 C   0  0  0  0  0  0  0  0  0  0  0  0
    7.9909    0.4167   20.9764 C   0  0  0  0  0  0  0  0  0  0  0  0
    6.8290    0.5730   20.1032 C   0  0  0  0  0  0  0  0  0  0  0  0
    6.5124    0.1416   18.8287 C   0  0  0  0  0  0  0  0  0  0  0  0
    5.2122    0.6238   18.5414 C   0  0  0  0  0  0  0  0  0  0  0  0
    4.8062    1.3272   19.6541 C   0  0  0  0  0  0  0  0  0  0  0  0
    3.5617    2.0650   19.9975 C   0  0  0  0  0  0  0  0  0  0  0  0
    3.1978    2.9679   18.9026 N   0  0  0  0  0  0  0  0  0  0  0  0
    1.9416    3.6685   19.2027 C   0  0  0  0  0  0  0  0  0  0  0  0
    1.3340    4.3206   17.9406 C   0  0  0  0  0  0  0  0  0  0  0  0
    2.1606    5.4399   17.4526 N   0  0  0  0  0  0  0  0  0  0  0  0
    1.5656    6.0881   16.2657 C   0  0  0  0  0  0  0  0  0  0  0  0
    1.5297    5.1468   15.0454 C   0  0  1  0  0  0  0  0  0  0  0  0
    1.0149    5.8538   13.8023 C   0  0  0  0  0  0  0  0  0  0  0  0
    2.8516    4.6668   14.7871 O   0  0  0  0  0  0  0  0  0  0  0  0
    5.7833    1.2984   20.6056 O   0  0  0  0  0  0  0  0  0  0  0  0
    8.5579   -0.8482   21.1889 C   0  0  0  0  0  0  0  0  0  0  0  0
    9.6700   -1.0080   22.0245 C   0  0  0  0  0  0  0  0  0  0  0  0
  1  2  1  0
  2  3  1  0
  3  4  1  0
  4  5  2  0
  4  6  1  0
  6  7  2  0
  7  8  1  0
  8  9  2  0
  9 10  1  0
 10 11  2  0
 11 12  1  0
 12 13  2  0
 13 14  1  0
 14 15  1  0
 15 16  1  0
 16 17  1  0
 17 18  1  0
 18 19  1  0
 19 20  1  0
 20 21  1  6
 20 22  1  0
 13 23  1  0
  9 24  1  0
 24 25  2  0
 25  6  1  0
 23 10  1  0
M  END
