
     RDKit          3D

 28 32  0  0  0  0  0  0  0  0999 V2000
    7.0134    5.2373   23.0265 C   0  0  0  0  0  0  0  0  0  0  0  0
    6.1028    6.3839   23.2199 C   0  0  0  0  0  0  0  0  0  0  0  0
    5.9585    7.4296   22.4291 N   0  0  0  0  0  0  0  0  0  0  0  0
    5.0147    8.2680   22.9892 N   0  0  0  0  0  0  0  0  0  0  0  0
    4.5951    7.7234   24.1148 C   0  0  0  0  0  0  0  0  0  0  0  0
    3.5967    8.2729   25.0544 C   0  0  0  0  0  0  0  0  0  0  0  0
    5.2452    6.5309   24.2751 N   0  0  0  0  0  0  0  0  0  0  0  0
    5.0067    5.6089   25.2537 N   0  0  0  0  0  0  0  0  0  0  0  0
    5.9757    5.3784   26.2089 C   0  0  0  0  0  0  0  0  0  0  0  0
    5.7682    4.4804   27.1799 C   0  0  0  0  0  0  0  0  0  0  0  0
    4.5189    3.7388   27.2368 C   0  0  0  0  0  0  0  0  0  0  0  0
    3.5723    3.9619   26.3047 C   0  0  0  0  0  0  0  0  0  0  0  0
    2.3282    3.1626   26.4320 C   0  0  0  0  0  0  0  0  0  0  0  0
    2.0769    2.2822   27.3543 N   0  0  0  0  0  0  0  0  0  0  0  0
    3.0608    2.0806   28.2886 C   0  0  0  0  0  0  0  0  0  0  0  0
    3.1481    1.2344   29.3819 C   0  0  0  0  0  0  0  0  0  0  0  0
    2.1311    0.2886   29.8169 C   0  0  0  0  0  0  0  0  0  0  0  0
    0.9183    0.1935   29.1166 C   0  0  0  0  0  0  0  0  0  0  0  0
   -0.0646   -0.7201   29.5120 C   0  0  0  0  0  0  0  0  0  0  0  0
    0.1599   -1.5474   30.6092 C   0  0  0  0  0  0  0  0  0  0  0  0
   -1.0485   -2.6711   31.0948 Cl  0  0  0  0  0  0  0  0  0  0  0  0
    1.3577   -1.4694   31.3137 C   0  0  0  0  0  0  0  0  0  0  0  0
    2.3395   -0.5553   30.9173 C   0  0  0  0  0  0  0  0  0  0  0  0
    4.4229    1.4959   29.9256 C   0  0  0  0  0  0  0  0  0  0  0  0
    5.1031    2.4249   29.2565 N   0  0  0  0  0  0  0  0  0  0  0  0
    4.2728    2.7890   28.2431 N   0  0  0  0  0  0  0  0  0  0  0  0
    3.7815    4.9550   25.2188 C   0  0  0  0  0  0  0  0  0  0  0  0
    2.9059    5.1447   24.3807 O   0  0  0  0  0  0  0  0  0  0  0  0
  1  2  1  0
  2  3  2  0
  3  4  1  0
  4  5  2  0
  5  6  1  0
  5  7  1  0
  7  8  1  0
  8  9  1  0
  9 10  2  0
 10 11  1  0
 11 12  2  0
 12 13  1  0
 13 14  2  0
 14 15  1  0
 15 16  2  0
 16 17  1  0
 17 18  2  0
 18 19  1  0
 19 20  2  0
 20 21  1  0
 20 22  1  0
 22 23  2  0
 16 24  1  0
 24 25  2  0
 25 26  1  0
 12 27  1  0
 27 28  2  0
  7  2  1  0
 27  8  1  0
 26 11  1  0
 26 15  1  0
 23 17  1  0
M  END
