
     RDKit          3D

 14 14  0  0  0  0  0  0  0  0999 V2000
   13.1744   -0.4660   23.3645 C   0  0  0  0  0  0  0  0  0  0  0  0
   12.2915   -0.1102   24.4210 O   0  0  0  0  0  0  0  0  0  0  0  0
   11.2993   -0.9973   24.7488 C   0  0  0  0  0  0  0  0  0  0  0  0
   11.5248   -2.3200   25.1432 C   0  0  0  0  0  0  0  0  0  0  0  0
   10.4478   -3.1716   25.4314 C   0  0  0  0  0  0  0  0  0  0  0  0
   10.7522   -4.5640   25.8414 C   0  0  0  0  0  0  0  0  0  0  0  0
   10.1993   -5.5638   25.4224 O   0  0  0  0  0  0  0  0  0  0  0  0
   11.7354   -4.6367   26.7542 O   0  0  0  0  0  0  0  0  0  0  0  0
    9.1346   -2.7045   25.3222 C   0  0  0  0  0  0  0  0  0  0  0  0
    8.9009   -1.3831   24.9354 C   0  0  0  0  0  0  0  0  0  0  0  0
    6.9074   -0.7500   24.7857 I   0  0  0  0  0  0  0  0  0  0  0  0
    9.9760   -0.5215   24.6704 C   0  0  0  0  0  0  0  0  0  0  0  0
    9.7082    0.7630   24.2597 O   0  0  0  0  0  0  0  0  0  0  0  0
    9.9002    1.7045   25.3161 C   0  0  0  0  0  0  0  0  0  0  0  0
  1  2  1  0
  2  3  1  0
  3  4  2  0
  4  5  1  0
  5  6  1  0
  6  7  2  0
  6  8  1  0
  5  9  2  0
  9 10  1  0
 10 11  1  0
 10 12  2  0
 12 13  1  0
 13 14  1  0
 12  3  1  0
M  END
