
     RDKit          3D

 33 36  0  0  0  0  0  0  0  0999 V2000
   10.4570   -1.8785   23.2598 C   0  0  0  0  0  0  0  0  0  0  0  0
   11.7837   -1.2609   23.5201 C   0  0  0  0  0  0  0  0  0  0  0  0
   13.0526   -1.8021   23.4164 C   0  0  0  0  0  0  0  0  0  0  0  0
   13.9839   -0.7983   23.7717 C   0  0  0  0  0  0  0  0  0  0  0  0
   13.2710    0.3397   24.1011 C   0  0  0  0  0  0  0  0  0  0  0  0
   13.7482    1.6719   24.5497 C   0  0  0  0  0  0  0  0  0  0  0  0
   11.9492    0.0224   23.9592 N   0  0  0  0  0  0  0  0  0  0  0  0
   10.9679    0.9382   24.0022 N   0  0  0  0  0  0  0  0  0  0  0  0
    9.8650    0.7293   24.7927 C   0  0  0  0  0  0  0  0  0  0  0  0
    9.6602   -0.2579   25.4880 O   0  0  0  0  0  0  0  0  0  0  0  0
    8.8532    1.8193   24.7496 C   0  0  0  0  0  0  0  0  0  0  0  0
    7.5810    1.5833   25.2757 C   0  0  0  0  0  0  0  0  0  0  0  0
    6.6137    2.5952   25.2441 C   0  0  0  0  0  0  0  0  0  0  0  0
    6.9087    3.8514   24.7004 C   0  0  0  0  0  0  0  0  0  0  0  0
    5.8763    4.8136   24.7108 N   0  0  0  0  0  0  0  0  0  0  0  0
    5.9360    6.1131   24.2406 C   0  0  0  0  0  0  0  0  0  0  0  0
    6.9181    6.6506   23.7326 O   0  0  0  0  0  0  0  0  0  0  0  0
    4.6468    6.9163   24.3916 C   0  0  2  0  0  0  0  0  0  0  0  0
    4.7307    8.2712   23.7235 C   0  0  0  0  0  0  0  0  0  0  0  0
    5.0432    9.2157   24.8522 C   0  0  0  0  0  0  0  0  0  0  0  0
    5.3911   10.3758   24.6523 O   0  0  0  0  0  0  0  0  0  0  0  0
    4.8476    8.5356   26.0726 N   0  0  0  0  0  0  0  0  0  0  0  0
    5.0784    9.0943   27.3753 C   0  0  0  0  0  0  0  0  0  0  0  0
    4.3151   10.2169   27.7672 C   0  0  0  0  0  0  0  0  0  0  0  0
    4.4676   10.8547   29.0111 C   0  0  0  0  0  0  0  0  0  0  0  0
    3.5796   12.0095   29.3884 C   0  0  0  0  0  0  0  0  0  0  0  0
    5.4070   10.3623   29.9027 C   0  0  0  0  0  0  0  0  0  0  0  0
    6.1858    9.2638   29.5493 C   0  0  0  0  0  0  0  0  0  0  0  0
    6.0359    8.6107   28.3028 C   0  0  0  0  0  0  0  0  0  0  0  0
    6.9034    7.3956   28.1159 C   0  0  0  0  0  0  0  0  0  0  0  0
    4.3091    7.2267   25.8355 C   0  0  0  0  0  0  0  0  0  0  0  0
    8.1929    4.0882   24.2007 C   0  0  0  0  0  0  0  0  0  0  0  0
    9.1638    3.0794   24.2261 C   0  0  0  0  0  0  0  0  0  0  0  0
  1  2  1  0
  2  3  2  0
  3  4  1  0
  4  5  2  0
  5  6  1  0
  5  7  1  0
  7  8  1  0
  8  9  1  0
  9 10  2  0
  9 11  1  0
 11 12  2  0
 12 13  1  0
 13 14  2  0
 14 15  1  0
 15 16  1  0
 16 17  2  0
 18 16  1  1
 18 19  1  0
 19 20  1  0
 20 21  2  0
 20 22  1  0
 22 23  1  0
 23 24  2  0
 24 25  1  0
 25 26  1  0
 25 27  2  0
 27 28  1  0
 28 29  2  0
 29 30  1  0
 22 31  1  0
 14 32  1  0
 32 33  2  0
  7  2  1  0
 33 11  1  0
 31 18  1  0
 29 23  1  0
M  END
