
     RDKit          3D

 30 35  0  0  0  0  0  0  0  0999 V2000
    1.0958    9.1687   24.6500 C   0  0  0  0  0  0  0  0  0  0  0  0
    1.7613    9.4198   25.8796 O   0  0  0  0  0  0  0  0  0  0  0  0
    2.4933    8.3970   26.4270 C   0  0  0  0  0  0  0  0  0  0  0  0
    3.8201    8.0844   26.0707 C   0  0  0  0  0  0  0  0  0  0  0  0
    4.5056    7.0242   26.6807 C   0  0  0  0  0  0  0  0  0  0  0  0
    3.8479    6.2746   27.6433 C   0  0  0  0  0  0  0  0  0  0  0  0
    2.5360    6.5927   28.0044 C   0  0  0  0  0  0  0  0  0  0  0  0
    1.8379    7.6269   27.4034 C   0  0  0  0  0  0  0  0  0  0  0  0
    0.5759    7.9573   27.8138 O   0  0  0  0  0  0  0  0  0  0  0  0
    0.5946    9.1975   28.5193 C   0  0  0  0  0  0  0  0  0  0  0  0
    2.1198    5.6561   29.0600 C   0  0  0  0  0  0  0  0  0  0  0  0
    0.9995    5.5404   29.5181 O   0  0  0  0  0  0  0  0  0  0  0  0
    3.2354    4.8981   29.3866 N   0  0  0  0  0  0  0  0  0  0  0  0
    3.1270    3.6304   30.1092 C   0  0  0  0  0  0  0  0  0  0  0  0
    2.9708    2.4199   29.1396 C   0  0  2  0  0  0  0  0  0  0  0  0
    3.2000    1.1311   29.8977 C   0  0  0  0  0  0  0  0  0  0  0  0
    2.2830    0.3262   30.5511 C   0  0  0  0  0  0  0  0  0  0  0  0
    2.8867   -0.8191   31.1444 C   0  0  0  0  0  0  0  0  0  0  0  0
    4.2439   -0.8593   30.9208 C   0  0  0  0  0  0  0  0  0  0  0  0
    4.7838    0.4764   30.0025 S   0  0  0  0  0  0  0  0  0  0  0  0
    3.9080    2.6063   27.9590 C   0  0  0  0  0  0  0  0  0  0  0  0
    4.3045    1.6978   26.9322 C   0  0  0  0  0  0  0  0  0  0  0  0
    4.0124    0.3512   26.6343 C   0  0  0  0  0  0  0  0  0  0  0  0
    4.5996   -0.2533   25.5170 C   0  0  0  0  0  0  0  0  0  0  0  0
    5.4661    0.4630   24.6961 C   0  0  0  0  0  0  0  0  0  0  0  0
    5.7684    1.8008   24.9640 C   0  0  0  0  0  0  0  0  0  0  0  0
    5.1722    2.3913   26.0853 C   0  0  0  0  0  0  0  0  0  0  0  0
    5.2825    3.6761   26.5676 N   0  0  0  0  0  0  0  0  0  0  0  0
    4.4973    3.8336   27.6773 C   0  0  0  0  0  0  0  0  0  0  0  0
    4.3365    5.1084   28.4482 C   0  0  1  0  0  0  0  0  0  0  0  0
  1  2  1  0
  2  3  1  0
  3  4  2  0
  4  5  1  0
  5  6  2  0
  6  7  1  0
  7  8  2  0
  8  9  1  0
  9 10  1  0
  7 11  1  0
 11 12  2  0
 11 13  1  0
 13 14  1  0
 14 15  1  0
 15 16  1  1
 16 17  2  0
 17 18  1  0
 18 19  2  0
 19 20  1  0
 15 21  1  0
 21 22  1  0
 22 23  2  0
 23 24  1  0
 24 25  2  0
 25 26  1  0
 26 27  2  0
 27 28  1  0
 28 29  1  0
 30 29  1  6
  8  3  1  0
 30 13  1  0
 30  6  1  0
 20 16  1  0
 29 21  2  0
 27 22  1  0
M  END
