
     RDKit          3D

 27 30  0  0  0  0  0  0  0  0999 V2000
    5.2907   -4.7538   23.9901 C   0  0  0  0  0  0  0  0  0  0  0  0
    6.4963   -4.0798   24.5333 C   0  0  0  0  0  0  0  0  0  0  0  0
    7.8298   -4.2259   24.1951 C   0  0  0  0  0  0  0  0  0  0  0  0
    8.5825   -3.3465   25.0150 C   0  0  0  0  0  0  0  0  0  0  0  0
    7.6971   -2.6769   25.8411 C   0  0  0  0  0  0  0  0  0  0  0  0
    7.9528   -1.6532   26.8852 C   0  0  0  0  0  0  0  0  0  0  0  0
    6.4529   -3.1639   25.5472 N   0  0  0  0  0  0  0  0  0  0  0  0
    5.3086   -2.6399   26.0250 N   0  0  0  0  0  0  0  0  0  0  0  0
    5.0801   -1.2907   25.8876 C   0  0  0  0  0  0  0  0  0  0  0  0
    5.8301   -0.4932   25.3392 O   0  0  0  0  0  0  0  0  0  0  0  0
    3.7883   -0.8121   26.4481 C   0  0  0  0  0  0  0  0  0  0  0  0
    2.7012   -1.6749   26.6010 C   0  0  0  0  0  0  0  0  0  0  0  0
    1.5196   -1.1909   27.1514 C   0  0  0  0  0  0  0  0  0  0  0  0
    1.4247    0.1478   27.5507 C   0  0  0  0  0  0  0  0  0  0  0  0
    2.5040    1.0368   27.4126 C   0  0  0  0  0  0  0  0  0  0  0  0
    2.4022    2.3994   27.8247 N   0  0  0  0  0  0  0  0  0  0  0  0
    2.8495    2.8935   29.0460 C   0  0  0  0  0  0  0  0  0  0  0  0
    3.5805    2.3824   29.8785 O   0  0  0  0  0  0  0  0  0  0  0  0
    2.2380    4.2583   29.1906 C   0  0  1  0  0  0  0  0  0  0  0  0
    2.9114    5.2957   30.0646 C   0  0  0  0  0  0  0  0  0  0  0  0
    2.1493    6.6238   29.9336 C   0  0  0  0  0  0  0  0  0  0  0  0
    1.9279    7.0598   28.4747 C   0  0  0  0  0  0  0  0  0  0  0  0
    1.3768    5.9387   27.5795 C   0  0  0  0  0  0  0  0  0  0  0  0
    2.2447    4.7088   27.7471 C   0  0  2  0  0  0  0  0  0  0  0  0
    1.8627    3.4277   27.0583 C   0  0  0  0  0  0  0  0  0  0  0  0
    1.2316    3.3830   26.0143 O   0  0  0  0  0  0  0  0  0  0  0  0
    3.6898    0.5280   26.8585 C   0  0  0  0  0  0  0  0  0  0  0  0
  1  2  1  0
  2  3  2  0
  3  4  1  0
  4  5  2  0
  5  6  1  0
  5  7  1  0
  7  8  1  0
  8  9  1  0
  9 10  2  0
  9 11  1  0
 11 12  2  0
 12 13  1  0
 13 14  2  0
 14 15  1  0
 15 16  1  0
 16 17  1  0
 17 18  2  0
 17 19  1  0
 19 20  1  1
 20 21  1  0
 21 22  1  0
 22 23  1  0
 24 23  1  1
 24 25  1  0
 25 26  2  0
 15 27  2  0
  7  2  1  0
 27 11  1  0
 25 16  1  0
 24 19  1  0
M  END
