
     RDKit          3D

 31 34  0  0  0  0  0  0  0  0999 V2000
    8.9546   -9.0938   29.6136 C   0  0  0  0  0  0  0  0  0  0  0  0
    8.4253   -7.7088   29.3736 C   0  0  0  0  0  0  0  0  0  0  0  0
    7.4749   -7.1420   30.2262 C   0  0  0  0  0  0  0  0  0  0  0  0
    6.9681   -5.8595   29.9824 C   0  0  0  0  0  0  0  0  0  0  0  0
    7.4093   -5.1260   28.8777 C   0  0  0  0  0  0  0  0  0  0  0  0
    6.8894   -3.7666   28.5365 C   0  0  0  0  0  0  0  0  0  0  0  0
    7.3996   -2.7689   29.0606 O   0  0  0  0  0  0  0  0  0  0  0  0
    5.8233   -3.6033   27.4634 C   0  0  0  0  0  0  0  0  0  0  0  0
    5.3322   -2.2326   27.4287 N   0  0  0  0  0  0  0  0  0  0  0  0
    4.0999   -1.8837   27.9560 C   0  0  0  0  0  0  0  0  0  0  0  0
    3.6571   -0.7356   27.9546 O   0  0  0  0  0  0  0  0  0  0  0  0
    3.2754   -2.9403   28.5652 C   0  0  0  0  0  0  0  0  0  0  0  0
    2.6113   -3.8275   27.7100 C   0  0  0  0  0  0  0  0  0  0  0  0
    1.8309   -4.8505   28.2456 C   0  0  0  0  0  0  0  0  0  0  0  0
    1.7277   -4.9976   29.6298 C   0  0  0  0  0  0  0  0  0  0  0  0
    2.4089   -4.1236   30.4803 C   0  0  0  0  0  0  0  0  0  0  0  0
    3.1896   -3.0932   29.9504 C   0  0  0  0  0  0  0  0  0  0  0  0
    4.0298   -2.0652   31.0484 Cl  0  0  0  0  0  0  0  0  0  0  0  0
    6.0791   -1.3638   26.6279 N   0  0  0  0  0  0  0  0  0  0  0  0
    5.7669   -0.0353   26.4738 C   0  0  0  0  0  0  0  0  0  0  0  0
    4.8090    0.6009   26.8730 O   0  0  0  0  0  0  0  0  0  0  0  0
    6.8827    0.5422   25.7218 C   0  0  0  0  0  0  0  0  0  0  0  0
    7.0828    1.8370   25.2824 C   0  0  0  0  0  0  0  0  0  0  0  0
    8.2737    2.1027   24.5961 C   0  0  0  0  0  0  0  0  0  0  0  0
    9.2262    1.0848   24.3749 C   0  0  0  0  0  0  0  0  0  0  0  0
    9.0016   -0.2209   24.8310 C   0  0  0  0  0  0  0  0  0  0  0  0
    7.8163   -0.4611   25.5006 C   0  0  0  0  0  0  0  0  0  0  0  0
    7.3036   -1.6963   26.0978 C   0  0  0  0  0  0  0  0  0  0  0  0
    7.8850   -2.7665   26.0833 O   0  0  0  0  0  0  0  0  0  0  0  0
    8.3763   -5.6860   28.0308 C   0  0  0  0  0  0  0  0  0  0  0  0
    8.8766   -6.9682   28.2771 C   0  0  0  0  0  0  0  0  0  0  0  0
  1  2  1  0
  2  3  2  0
  3  4  1  0
  4  5  2  0
  5  6  1  0
  6  7  2  0
  6  8  1  0
  8  9  1  0
  9 10  1  0
 10 11  2  0
 10 12  1  0
 12 13  2  0
 13 14  1  0
 14 15  2  0
 15 16  1  0
 16 17  2  0
 17 18  1  0
  9 19  1  0
 19 20  1  0
 20 21  2  0
 20 22  1  0
 22 23  2  0
 23 24  1  0
 24 25  2  0
 25 26  1  0
 26 27  2  0
 27 28  1  0
 28 29  2  0
  5 30  1  0
 30 31  2  0
 31  2  1  0
 17 12  1  0
 28 19  1  0
 27 22  1  0
M  END
