
     RDKit          3D

 35 38  0  0  0  0  0  0  0  0999 V2000
    3.4483    7.5579   23.8388 O   0  0  0  0  0  0  0  0  0  0  0  0
    4.2272    7.7875   22.9093 C   0  0  0  0  0  0  0  0  0  0  0  0
    5.6672    7.2955   22.9802 C   0  0  0  0  0  0  0  0  0  0  0  0
    6.1453    7.2261   24.3557 N   0  0  0  0  0  0  0  0  0  0  0  0
    6.6111    6.0380   24.8997 C   0  0  0  0  0  0  0  0  0  0  0  0
    7.0357    5.9405   26.0481 O   0  0  0  0  0  0  0  0  0  0  0  0
    6.6138    4.8274   24.0473 C   0  0  0  0  0  0  0  0  0  0  0  0
    7.8125    4.4321   23.4431 C   0  0  0  0  0  0  0  0  0  0  0  0
    7.8434    3.2868   22.6431 C   0  0  0  0  0  0  0  0  0  0  0  0
    6.6648    2.5527   22.4419 C   0  0  0  0  0  0  0  0  0  0  0  0
    6.6959    1.3416   21.6093 N   0  0  0  0  0  0  0  0  0  0  0  0
    7.6712    1.1844   20.8600 O   0  0  0  0  0  0  0  0  0  0  0  0
    5.7400    0.5588   21.6947 O   0  0  0  0  0  0  0  0  0  0  0  0
    5.4575    2.9620   23.0280 C   0  0  0  0  0  0  0  0  0  0  0  0
    5.4328    4.1066   23.8297 C   0  0  0  0  0  0  0  0  0  0  0  0
    6.4899    8.4652   24.9058 N   0  0  0  0  0  0  0  0  0  0  0  0
    6.3891    9.6453   24.2171 C   0  0  0  0  0  0  0  0  0  0  0  0
    5.9602    9.8585   23.0988 O   0  0  0  0  0  0  0  0  0  0  0  0
    6.8964   10.6716   25.1305 C   0  0  0  0  0  0  0  0  0  0  0  0
    7.0193   12.0364   24.9541 C   0  0  0  0  0  0  0  0  0  0  0  0
    7.5378   12.7723   26.0238 C   0  0  0  0  0  0  0  0  0  0  0  0
    7.9154   12.1360   27.2269 C   0  0  0  0  0  0  0  0  0  0  0  0
    7.7791   10.7536   27.3833 C   0  0  0  0  0  0  0  0  0  0  0  0
    7.2663   10.0475   26.3138 C   0  0  0  0  0  0  0  0  0  0  0  0
    6.9982    8.6150   26.1739 C   0  0  0  0  0  0  0  0  0  0  0  0
    7.1768    7.7816   27.0445 O   0  0  0  0  0  0  0  0  0  0  0  0
    3.7617    8.6289   21.7640 C   0  0  0  0  0  0  0  0  0  0  0  0
    4.3504    8.4063   20.5071 C   0  0  0  0  0  0  0  0  0  0  0  0
    3.9669    9.1558   19.3894 C   0  0  0  0  0  0  0  0  0  0  0  0
    2.9902   10.1462   19.5300 C   0  0  0  0  0  0  0  0  0  0  0  0
    2.5951   10.9571   18.3708 N   0  0  0  0  0  0  0  0  0  0  0  0
    1.4473   11.4246   18.3577 O   0  0  0  0  0  0  0  0  0  0  0  0
    3.4316   11.1176   17.4677 O   0  0  0  0  0  0  0  0  0  0  0  0
    2.3918   10.3791   20.7734 C   0  0  0  0  0  0  0  0  0  0  0  0
    2.7783    9.6188   21.8856 C   0  0  0  0  0  0  0  0  0  0  0  0
  1  2  2  0
  2  3  1  0
  3  4  1  0
  4  5  1  0
  5  6  2  0
  5  7  1  0
  7  8  2  0
  8  9  1  0
  9 10  2  0
 10 11  1  0
 11 12  2  0
 11 13  1  0
 10 14  1  0
 14 15  2  0
  4 16  1  0
 16 17  1  0
 17 18  2  0
 17 19  1  0
 19 20  2  0
 20 21  1  0
 21 22  2  0
 22 23  1  0
 23 24  2  0
 24 25  1  0
 25 26  2  0
  2 27  1  0
 27 28  2  0
 28 29  1  0
 29 30  2  0
 30 31  1  0
 31 32  2  0
 31 33  1  0
 30 34  1  0
 34 35  2  0
 15  7  1  0
 25 16  1  0
 35 27  1  0
 24 19  1  0
M  CHG  4  11   1  13  -1  31   1  33  -1
M  END
