
     RDKit          3D

 35 38  0  0  0  0  0  0  0  0999 V2000
   -0.4446   10.0370   23.8214 C   0  0  0  0  0  0  0  0  0  0  0  0
   -1.1621    8.8600   24.1709 O   0  0  0  0  0  0  0  0  0  0  0  0
   -0.4251    7.7416   24.4436 C   0  0  0  0  0  0  0  0  0  0  0  0
    0.6868    7.2988   23.7313 C   0  0  0  0  0  0  0  0  0  0  0  0
    1.3640    6.1396   24.1309 C   0  0  0  0  0  0  0  0  0  0  0  0
    0.9224    5.3876   25.2281 C   0  0  0  0  0  0  0  0  0  0  0  0
    1.6226    4.2158   25.6019 N   0  0  0  0  0  0  0  0  0  0  0  0
    1.3134    2.9156   25.0624 C   0  0  0  0  0  0  0  0  0  0  0  0
    2.5857    2.1318   25.3039 C   0  0  1  0  0  0  0  0  0  0  0  0
    3.5561    2.2173   24.1275 C   0  0  0  0  0  0  0  0  0  0  0  0
    3.3459    3.0371   23.2358 O   0  0  0  0  0  0  0  0  0  0  0  0
    4.6240    1.3389   24.1770 N   0  0  0  0  0  0  0  0  0  0  0  0
    5.6639    1.2018   23.2324 C   0  0  0  0  0  0  0  0  0  0  0  0
    5.3071    1.2614   21.8794 C   0  0  0  0  0  0  0  0  0  0  0  0
    6.2744    1.1370   20.8806 C   0  0  0  0  0  0  0  0  0  0  0  0
    7.6102    0.9487   21.2278 C   0  0  0  0  0  0  0  0  0  0  0  0
    7.9832    0.8842   22.5756 C   0  0  0  0  0  0  0  0  0  0  0  0
    9.4258    0.6862   22.9008 C   0  0  0  0  0  0  0  0  0  0  0  0
   10.2774    1.2204   22.1985 O   0  0  0  0  0  0  0  0  0  0  0  0
    9.6918   -0.1266   23.9777 N   0  0  0  0  0  0  0  0  0  0  0  0
   10.9670   -0.3570   24.3377 N   0  0  0  0  0  0  0  0  0  0  0  0
   11.4832   -0.0111   25.5555 C   0  0  0  0  0  0  0  0  0  0  0  0
   10.7576    0.8305   26.5401 C   0  0  0  0  0  0  0  0  0  0  0  0
   12.7478   -0.5682   25.6169 C   0  0  0  0  0  0  0  0  0  0  0  0
   12.9621   -1.2880   24.4135 C   0  0  0  0  0  0  0  0  0  0  0  0
   11.8248   -1.1593   23.6361 C   0  0  0  0  0  0  0  0  0  0  0  0
   11.5157   -1.7127   22.2939 C   0  0  0  0  0  0  0  0  0  0  0  0
    7.0077    1.0287   23.5739 C   0  0  0  0  0  0  0  0  0  0  0  0
    3.1640    2.7333   26.5789 C   0  0  0  0  0  0  0  0  0  0  0  0
    2.5966    4.1338   26.6062 C   0  0  0  0  0  0  0  0  0  0  0  0
    2.9377    4.9803   27.4161 O   0  0  0  0  0  0  0  0  0  0  0  0
   -0.1868    5.8526   25.9561 C   0  0  0  0  0  0  0  0  0  0  0  0
   -0.4847    5.2553   27.1582 O   0  0  0  0  0  0  0  0  0  0  0  0
   -0.5575    6.1885   28.2377 C   0  0  0  0  0  0  0  0  0  0  0  0
   -0.8479    7.0232   25.5638 C   0  0  0  0  0  0  0  0  0  0  0  0
  1  2  1  0
  2  3  1  0
  3  4  2  0
  4  5  1  0
  5  6  2  0
  6  7  1  0
  7  8  1  0
  8  9  1  0
  9 10  1  6
 10 11  2  0
 10 12  1  0
 12 13  1  0
 13 14  2  0
 14 15  1  0
 15 16  2  0
 16 17  1  0
 17 18  1  0
 18 19  2  0
 18 20  1  0
 20 21  1  0
 21 22  1  0
 22 23  1  0
 22 24  2  0
 24 25  1  0
 25 26  2  0
 26 27  1  0
 17 28  2  0
  9 29  1  0
 29 30  1  0
 30 31  2  0
  6 32  1  0
 32 33  1  0
 33 34  1  0
 32 35  2  0
 35  3  1  0
 30  7  1  0
 28 13  1  0
 26 21  1  0
M  END
