
     RDKit          3D

 18 19  0  0  0  0  0  0  0  0999 V2000
    8.3822    8.9482   30.3985 C   0  0  0  0  0  0  0  0  0  0  0  0
    8.7574    9.8950   31.4065 O   0  0  0  0  0  0  0  0  0  0  0  0
    8.2985   11.1511   31.1046 C   0  0  0  0  0  0  0  0  0  0  0  0
    9.2157   12.1899   30.8443 C   0  0  0  0  0  0  0  0  0  0  0  0
   10.9225   11.8739   30.9157 Cl  0  0  0  0  0  0  0  0  0  0  0  0
    8.7462   13.4653   30.4936 C   0  0  0  0  0  0  0  0  0  0  0  0
    9.8050   14.7968   30.1807 Cl  0  0  0  0  0  0  0  0  0  0  0  0
    7.3751   13.6999   30.3757 C   0  0  0  0  0  0  0  0  0  0  0  0
    6.4684   12.6627   30.5901 C   0  0  0  0  0  0  0  0  0  0  0  0
    6.9268   11.3832   30.9382 C   0  0  0  0  0  0  0  0  0  0  0  0
    5.7029   10.1147   31.1917 S   0  0  0  0  0  0  0  0  0  0  0  0
    4.4568   10.7879   31.5039 O   0  0  0  0  0  0  0  0  0  0  0  0
    6.2137    9.1031   32.0904 O   0  0  0  0  0  0  0  0  0  0  0  0
    5.5260    9.4372   29.6476 N   0  0  0  0  0  0  0  0  0  0  0  0
    4.5574    8.3234   29.4908 C   0  0  0  0  0  0  0  0  0  0  0  0
    4.1974    8.3619   28.0139 C   0  0  0  0  0  0  0  0  0  0  0  0
    4.1176    9.8507   27.7474 C   0  0  0  0  0  0  0  0  0  0  0  0
    5.2842   10.4149   28.5485 C   0  0  0  0  0  0  0  0  0  0  0  0
  1  2  1  0
  2  3  1  0
  3  4  2  0
  4  5  1  0
  4  6  1  0
  6  7  1  0
  6  8  2  0
  8  9  1  0
  9 10  2  0
 10 11  1  0
 11 12  2  0
 11 13  2  0
 11 14  1  0
 14 15  1  0
 15 16  1  0
 16 17  1  0
 17 18  1  0
 10  3  1  0
 18 14  1  0
M  END
