
     RDKit          3D

 24 27  0  0  0  0  0  0  0  0999 V2000
    3.5765    4.5007   23.8123 C   0  0  0  0  0  0  0  0  0  0  0  0
    4.6905    5.3154   24.1452 O   0  0  0  0  0  0  0  0  0  0  0  0
    5.8663    5.2020   23.3098 C   0  0  2  0  0  0  0  0  0  0  0  0
    5.8158    3.8888   22.5092 C   0  0  0  0  0  0  0  0  0  0  0  0
    6.0717    2.8324   23.5816 C   0  0  0  0  0  0  0  0  0  0  0  0
    6.9776    3.4749   24.5236 N   0  0  0  0  0  0  0  0  0  0  0  0
    7.4804    2.9305   25.6896 C   0  0  0  0  0  0  0  0  0  0  0  0
    8.2364    3.5231   26.4531 O   0  0  0  0  0  0  0  0  0  0  0  0
    7.0727    1.5564   26.0398 C   0  0  0  0  0  0  0  0  0  0  0  0
    5.7336    1.2710   26.3301 C   0  0  0  0  0  0  0  0  0  0  0  0
    5.3616   -0.0357   26.6482 C   0  0  0  0  0  0  0  0  0  0  0  0
    6.3238   -1.0457   26.6648 C   0  0  0  0  0  0  0  0  0  0  0  0
    7.6538   -0.7602   26.3284 C   0  0  0  0  0  0  0  0  0  0  0  0
    8.0345    0.5436   26.0227 C   0  0  0  0  0  0  0  0  0  0  0  0
    8.6375   -1.7153   26.2869 O   0  0  0  0  0  0  0  0  0  0  0  0
    8.0801   -3.0340   26.2558 C   0  0  0  0  0  0  0  0  0  0  0  0
    6.9852   -3.1747   27.3001 C   0  0  0  0  0  0  0  0  0  0  0  0
    5.8887   -2.3007   27.0078 O   0  0  0  0  0  0  0  0  0  0  0  0
    7.0678    4.9195   24.2638 C   0  0  1  0  0  0  0  0  0  0  0  0
    8.4471    5.2314   23.6703 C   0  0  0  0  0  0  0  0  0  0  0  0
    8.4939    6.5880   22.9874 C   0  0  1  0  0  0  0  0  0  0  0  0
    9.7799    6.7583   22.4011 O   0  0  0  0  0  0  0  0  0  0  0  0
    7.4382    6.6674   21.8929 C   0  0  0  0  0  0  0  0  0  0  0  0
    6.0428    6.4707   22.4630 C   0  0  0  0  0  0  0  0  0  0  0  0
  1  2  1  0
  3  2  1  1
  3  4  1  0
  4  5  1  0
  5  6  1  0
  6  7  1  0
  7  8  2  0
  7  9  1  0
  9 10  2  0
 10 11  1  0
 11 12  2  0
 12 13  1  0
 13 14  2  0
 13 15  1  0
 15 16  1  0
 16 17  1  0
 17 18  1  0
  6 19  1  0
 19 20  1  6
 20 21  1  0
 21 22  1  6
 21 23  1  0
 23 24  1  0
 19  3  1  0
 24  3  1  0
 14  9  1  0
 18 12  1  0
M  END
