
     RDKit          3D

 23 25  0  0  0  0  0  0  0  0999 V2000
    4.5500    4.0756   26.7762 C   0  0  0  0  0  0  0  0  0  0  0  0
    5.8441    3.6490   26.3759 O   0  0  0  0  0  0  0  0  0  0  0  0
    6.2973    4.0613   25.1494 C   0  0  0  0  0  0  0  0  0  0  0  0
    5.7652    5.1268   24.4180 C   0  0  0  0  0  0  0  0  0  0  0  0
    6.2861    5.4805   23.1566 C   0  0  0  0  0  0  0  0  0  0  0  0
    5.6604    6.6456   22.4005 C   0  0  1  0  0  0  0  0  0  0  0  0
    4.3107    6.3269   21.7298 C   0  0  0  0  0  0  0  0  0  0  0  0
    3.0648    6.5260   22.5985 C   0  0  0  0  0  0  0  0  0  0  0  0
    2.0286    5.8948   22.3911 O   0  0  0  0  0  0  0  0  0  0  0  0
    3.0928    7.5029   23.5671 N   0  0  0  0  0  0  0  0  0  0  0  0
    4.2833    8.0891   23.8940 C   0  0  0  0  0  0  0  0  0  0  0  0
    4.4891    9.0900   24.7900 N   0  0  0  0  0  0  0  0  0  0  0  0
    5.7833    9.4525   24.8731 N   0  0  0  0  0  0  0  0  0  0  0  0
    6.4156    8.6270   24.0233 C   0  0  0  0  0  0  0  0  0  0  0  0
    7.8874    8.7120   23.8623 C   0  0  0  0  0  0  0  0  0  0  0  0
    5.5087    7.7411   23.3915 C   0  0  0  0  0  0  0  0  0  0  0  0
    7.3693    4.7410   22.6443 C   0  0  0  0  0  0  0  0  0  0  0  0
    7.9239    3.6783   23.3637 C   0  0  0  0  0  0  0  0  0  0  0  0
    8.9784    2.9137   22.9340 O   0  0  0  0  0  0  0  0  0  0  0  0
    8.7282    2.0018   21.8727 C   0  0  0  0  0  0  0  0  0  0  0  0
    7.3641    3.3314   24.6029 C   0  0  0  0  0  0  0  0  0  0  0  0
    7.9225    2.3051   25.3342 O   0  0  0  0  0  0  0  0  0  0  0  0
    8.9471    2.8214   26.1818 C   0  0  0  0  0  0  0  0  0  0  0  0
  1  2  1  0
  2  3  1  0
  3  4  2  0
  4  5  1  0
  6  5  1  1
  6  7  1  0
  7  8  1  0
  8  9  2  0
  8 10  1  0
 10 11  1  0
 11 12  1  0
 12 13  1  0
 13 14  2  0
 14 15  1  0
 14 16  1  0
  5 17  2  0
 17 18  1  0
 18 19  1  0
 19 20  1  0
 18 21  2  0
 21 22  1  0
 22 23  1  0
 21  3  1  0
 16  6  1  0
 16 11  2  0
M  END
