
     RDKit          3D

 34 35  0  0  0  0  0  0  0  0999 V2000
    2.1467    4.3777   16.9493 N   0  0  0  0  0  0  0  0  0  0  0  0
    1.1653    4.6322   18.0309 C   0  0  2  0  0  0  0  0  0  0  0  0
    1.2927    6.0560   18.6031 C   0  0  0  0  0  0  0  0  0  0  0  0
    1.0190    7.1348   17.5829 C   0  0  0  0  0  0  0  0  0  0  0  0
   -0.2804    7.6276   17.4006 C   0  0  0  0  0  0  0  0  0  0  0  0
   -0.5335    8.6280   16.4607 C   0  0  0  0  0  0  0  0  0  0  0  0
    0.5103    9.1440   15.6955 C   0  0  0  0  0  0  0  0  0  0  0  0
    1.8037    8.6549   15.8617 C   0  0  0  0  0  0  0  0  0  0  0  0
    2.0576    7.6538   16.7998 C   0  0  0  0  0  0  0  0  0  0  0  0
    1.3975    3.6185   19.1723 C   0  0  0  0  0  0  0  0  0  0  0  0
    0.4700    3.0875   19.7767 O   0  0  0  0  0  0  0  0  0  0  0  0
    2.7268    3.3420   19.4274 N   0  0  0  0  0  0  0  0  0  0  0  0
    3.0939    2.4076   20.4726 C   0  0  0  0  0  0  0  0  0  0  0  0
    4.5038    1.8612   20.2641 C   0  0  0  0  0  0  0  0  0  0  0  0
    4.7036    1.2331   18.8811 C   0  0  0  0  0  0  0  0  0  0  0  0
    6.1288    0.7600   18.5749 C   0  0  0  0  0  0  0  0  0  0  0  0
    6.3781   -0.7348   18.8003 C   0  0  0  0  0  0  0  0  0  0  0  0
    6.7868   -1.1249   20.2276 C   0  0  0  0  0  0  0  0  0  0  0  0
    6.0552   -2.3336   20.8258 C   0  0  0  0  0  0  0  0  0  0  0  0
    6.8975   -3.1262   21.8286 C   0  0  0  0  0  0  0  0  0  0  0  0
    6.2683   -4.4893   22.1346 C   0  0  0  0  0  0  0  0  0  0  0  0
    6.6510   -5.0309   23.5138 C   0  0  0  0  0  0  0  0  0  0  0  0
    8.0452   -4.8121   23.8381 N   0  0  0  0  0  0  0  0  0  0  0  0
    8.6012   -5.2069   25.0346 C   0  0  0  0  0  0  0  0  0  0  0  0
    7.9597   -5.7812   25.9156 O   0  0  0  0  0  0  0  0  0  0  0  0
   10.1066   -4.8849   25.1951 C   0  0  2  0  0  0  0  0  0  0  0  0
   10.6229   -5.6015   26.3901 N   0  0  0  0  0  0  0  0  0  0  0  0
   10.3424   -3.3708   25.3549 C   0  0  0  0  0  0  0  0  0  0  0  0
   11.6645   -2.8998   24.7855 C   0  0  0  0  0  0  0  0  0  0  0  0
   12.8609   -3.1232   25.4796 C   0  0  0  0  0  0  0  0  0  0  0  0
   14.0737   -2.6648   24.9614 C   0  0  0  0  0  0  0  0  0  0  0  0
   14.1026   -1.9854   23.7444 C   0  0  0  0  0  0  0  0  0  0  0  0
   12.9198   -1.7697   23.0404 C   0  0  0  0  0  0  0  0  0  0  0  0
   11.7064   -2.2266   23.5554 C   0  0  0  0  0  0  0  0  0  0  0  0
  2  1  1  6
  2  3  1  0
  3  4  1  0
  4  5  2  0
  5  6  1  0
  6  7  2  0
  7  8  1  0
  8  9  2  0
  2 10  1  0
 10 11  2  0
 10 12  1  0
 12 13  1  0
 13 14  1  0
 14 15  1  0
 15 16  1  0
 16 17  1  0
 17 18  1  0
 18 19  1  0
 19 20  1  0
 20 21  1  0
 21 22  1  0
 22 23  1  0
 23 24  1  0
 24 25  2  0
 24 26  1  0
 26 27  1  1
 26 28  1  0
 28 29  1  0
 29 30  2  0
 30 31  1  0
 31 32  2  0
 32 33  1  0
 33 34  2  0
  9  4  1  0
 34 29  1  0
M  END
