
     RDKit          3D

 23 25  0  0  0  0  0  0  0  0999 V2000
    9.4507    3.0638   24.1803 C   0  0  0  0  0  0  0  0  0  0  0  0
    9.2007    2.3377   25.3763 O   0  0  0  0  0  0  0  0  0  0  0  0
    7.9866    1.7136   25.4931 C   0  0  0  0  0  0  0  0  0  0  0  0
    6.7475    2.3514   25.3837 C   0  0  0  0  0  0  0  0  0  0  0  0
    5.5638    1.6210   25.5310 C   0  0  0  0  0  0  0  0  0  0  0  0
    5.6145    0.2478   25.7928 C   0  0  0  0  0  0  0  0  0  0  0  0
    4.3785   -0.5274   25.9603 C   0  0  0  0  0  0  0  0  0  0  0  0
    3.2842    0.0137   25.8484 O   0  0  0  0  0  0  0  0  0  0  0  0
    4.5277   -1.9789   26.2654 C   0  0  0  0  0  0  0  0  0  0  0  0
    3.3200   -2.7952   26.4728 C   0  0  0  0  0  0  0  0  0  0  0  0
    3.0443   -3.8746   25.6227 C   0  0  0  0  0  0  0  0  0  0  0  0
    1.9032   -4.6557   25.8237 C   0  0  0  0  0  0  0  0  0  0  0  0
    1.0361   -4.3579   26.8734 C   0  0  0  0  0  0  0  0  0  0  0  0
   -0.3669   -5.3219   27.1222 Cl  0  0  0  0  0  0  0  0  0  0  0  0
    1.2976   -3.2844   27.7230 C   0  0  0  0  0  0  0  0  0  0  0  0
    2.4378   -2.5023   27.5226 C   0  0  0  0  0  0  0  0  0  0  0  0
    5.7752   -2.4910   26.3365 C   0  0  0  0  0  0  0  0  0  0  0  0
    6.1000   -3.9355   26.6057 C   0  0  0  0  0  0  0  0  0  0  0  0
    6.9313   -1.7443   26.1555 O   0  0  0  0  0  0  0  0  0  0  0  0
    6.8342   -0.4024   25.8988 C   0  0  0  0  0  0  0  0  0  0  0  0
    8.0182    0.3271   25.7311 C   0  0  0  0  0  0  0  0  0  0  0  0
    9.2222   -0.3228   25.8817 O   0  0  0  0  0  0  0  0  0  0  0  0
    9.7211   -0.1292   27.2048 C   0  0  0  0  0  0  0  0  0  0  0  0
  1  2  1  0
  2  3  1  0
  3  4  2  0
  4  5  1  0
  5  6  2  0
  6  7  1  0
  7  8  2  0
  7  9  1  0
  9 10  1  0
 10 11  2  0
 11 12  1  0
 12 13  2  0
 13 14  1  0
 13 15  1  0
 15 16  2  0
  9 17  2  0
 17 18  1  0
 17 19  1  0
 19 20  1  0
 20 21  2  0
 21 22  1  0
 22 23  1  0
 21  3  1  0
 20  6  1  0
 16 10  1  0
M  END
