
     RDKit          3D

 30 34  0  0  0  0  0  0  0  0999 V2000
   -2.8247    6.1320   23.9086 C   0  0  0  0  0  0  0  0  0  0  0  0
   -1.7363    5.2801   23.4623 N   0  0  0  0  0  0  0  0  0  0  0  0
   -0.4203    5.3989   23.9120 C   0  0  0  0  0  0  0  0  0  0  0  0
    0.5870    4.5602   23.4015 C   0  0  0  0  0  0  0  0  0  0  0  0
    1.7975    4.9115   23.9813 C   0  0  0  0  0  0  0  0  0  0  0  0
    3.1021    4.2841   23.7758 C   0  0  0  0  0  0  0  0  0  0  0  0
    3.8179    3.7701   24.8626 C   0  0  0  0  0  0  0  0  0  0  0  0
    5.0563    3.1559   24.6651 C   0  0  0  0  0  0  0  0  0  0  0  0
    5.5786    3.0369   23.3782 C   0  0  0  0  0  0  0  0  0  0  0  0
    4.8600    3.5228   22.2869 C   0  0  0  0  0  0  0  0  0  0  0  0
    3.6224    4.1385   22.4836 C   0  0  0  0  0  0  0  0  0  0  0  0
    1.5412    6.0017   24.7969 N   0  0  0  0  0  0  0  0  0  0  0  0
    0.1630    6.2302   24.8582 C   0  0  0  0  0  0  0  0  0  0  0  0
   -0.4246    7.2554   25.8024 C   0  0  1  0  0  0  0  0  0  0  0  0
   -1.3704    6.6621   26.7944 C   0  0  0  0  0  0  0  0  0  0  0  0
   -1.8814    7.0922   28.0048 C   0  0  0  0  0  0  0  0  0  0  0  0
   -2.7504    6.0732   28.4609 C   0  0  0  0  0  0  0  0  0  0  0  0
   -2.7231    5.0888   27.5021 C   0  0  0  0  0  0  0  0  0  0  0  0
   -1.8876    5.4327   26.4886 O   0  0  0  0  0  0  0  0  0  0  0  0
    0.5929    7.8692   26.6051 O   0  0  0  0  0  0  0  0  0  0  0  0
    1.7669    8.1682   25.8666 C   0  0  0  0  0  0  0  0  0  0  0  0
    2.5043    6.8558   25.5295 C   0  0  0  0  0  0  0  0  0  0  0  0
    2.9364    6.1675   26.8379 C   0  0  0  0  0  0  0  0  0  0  0  0
    3.7416    7.2547   24.7048 C   0  0  0  0  0  0  0  0  0  0  0  0
    0.3043    3.5190   22.4383 C   0  0  0  0  0  0  0  0  0  0  0  0
    1.1690    2.7740   21.9851 O   0  0  0  0  0  0  0  0  0  0  0  0
   -1.0406    3.4446   22.0775 N   0  0  0  0  0  0  0  0  0  0  0  0
   -1.4285    2.4143   21.1325 C   0  0  0  0  0  0  0  0  0  0  0  0
   -2.0714    4.2620   22.5553 C   0  0  0  0  0  0  0  0  0  0  0  0
   -3.2366    4.0848   22.1825 O   0  0  0  0  0  0  0  0  0  0  0  0
  1  2  1  0
  2  3  1  0
  3  4  1  0
  4  5  2  0
  5  6  1  0
  6  7  2  0
  7  8  1  0
  8  9  2  0
  9 10  1  0
 10 11  2  0
  5 12  1  0
 12 13  1  0
 13 14  1  0
 14 15  1  1
 15 16  2  0
 16 17  1  0
 17 18  2  0
 18 19  1  0
 14 20  1  0
 20 21  1  0
 21 22  1  0
 22 23  1  0
 22 24  1  0
  4 25  1  0
 25 26  2  0
 25 27  1  0
 27 28  1  0
 27 29  1  0
 29 30  2  0
 29  2  1  0
 13  3  2  0
 19 15  1  0
 11  6  1  0
 22 12  1  0
M  END
