
     RDKit          3D

 24 26  0  0  0  0  0  0  0  0999 V2000
   13.3738    4.7289   23.4623 C   0  0  0  0  0  0  0  0  0  0  0  0
   12.8743    3.3373   23.1022 C   0  0  2  0  0  0  0  0  0  0  0  0
   11.3431    3.2497   23.2019 C   0  0  0  0  0  0  0  0  0  0  0  0
   10.8601    1.9057   22.8613 N   0  0  0  0  0  0  0  0  0  0  0  0
    9.5045    1.7531   22.5978 C   0  0  0  0  0  0  0  0  0  0  0  0
    8.7493    2.7203   22.6988 O   0  0  0  0  0  0  0  0  0  0  0  0
    8.9780    0.3606   22.2404 C   0  0  2  0  0  0  0  0  0  0  0  0
    7.7823    0.3602   21.2950 C   0  0  0  0  0  0  0  0  0  0  0  0
    7.5071   -1.0582   20.8183 C   0  0  0  0  0  0  0  0  0  0  0  0
    7.6045   -2.1606   21.8623 C   0  0  0  0  0  0  0  0  0  0  0  0
    7.0932   -3.2570   21.6302 O   0  0  0  0  0  0  0  0  0  0  0  0
    8.3554   -1.9075   23.0013 N   0  0  0  0  0  0  0  0  0  0  0  0
    8.4924   -2.9763   23.9810 C   0  0  0  0  0  0  0  0  0  0  0  0
    8.6421   -0.5303   23.4629 C   0  0  2  0  0  0  0  0  0  0  0  0
    7.5555   -0.0412   24.4299 C   0  0  0  0  0  0  0  0  0  0  0  0
    7.9196    0.7662   25.5224 C   0  0  0  0  0  0  0  0  0  0  0  0
    6.9696    1.2180   26.4418 C   0  0  0  0  0  0  0  0  0  0  0  0
    5.6338    0.8606   26.2956 C   0  0  0  0  0  0  0  0  0  0  0  0
    5.2503    0.0495   25.2325 C   0  0  0  0  0  0  0  0  0  0  0  0
    6.2016   -0.3996   24.3113 C   0  0  0  0  0  0  0  0  0  0  0  0
   11.8279    0.8271   23.1070 C   0  0  0  0  0  0  0  0  0  0  0  0
   12.7945    1.2081   24.2444 C   0  0  1  0  0  0  0  0  0  0  0  0
   13.7892    0.0899   24.5216 C   0  0  0  0  0  0  0  0  0  0  0  0
   13.5486    2.3980   23.9588 O   0  0  0  0  0  0  0  0  0  0  0  0
  2  1  1  1
  2  3  1  0
  3  4  1  0
  4  5  1  0
  5  6  2  0
  7  5  1  1
  7  8  1  0
  8  9  1  0
  9 10  1  0
 10 11  2  0
 10 12  1  0
 12 13  1  0
 12 14  1  0
 14 15  1  6
 15 16  2  0
 16 17  1  0
 17 18  2  0
 18 19  1  0
 19 20  2  0
  4 21  1  0
 21 22  1  0
 22 23  1  6
 22 24  1  0
 24  2  1  0
 14  7  1  0
 20 15  1  0
M  END
