
     RDKit          3D

 33 35  0  0  0  0  0  0  0  0999 V2000
    2.2077    3.7817   26.1811 C   0  0  0  0  0  0  0  0  0  0  0  0
    3.3291    4.6090   26.4719 O   0  0  0  0  0  0  0  0  0  0  0  0
    4.5677    4.1319   26.1324 C   0  0  0  0  0  0  0  0  0  0  0  0
    5.1570    2.9791   26.6747 C   0  0  0  0  0  0  0  0  0  0  0  0
    6.4191    2.5509   26.2515 C   0  0  0  0  0  0  0  0  0  0  0  0
    7.0449    1.3789   26.7276 N   0  0  0  0  0  0  0  0  0  0  0  0
    7.2883    0.2066   26.0371 C   0  0  0  0  0  0  0  0  0  0  0  0
    6.9324   -0.0686   24.8922 O   0  0  0  0  0  0  0  0  0  0  0  0
    7.9884   -0.8498   26.8815 C   0  0  0  0  0  0  0  0  0  0  0  0
    7.2536   -2.0946   26.7304 N   0  0  0  0  0  0  0  0  0  0  0  0
    7.9367   -3.1361   26.1379 C   0  0  0  0  0  0  0  0  0  0  0  0
    9.1420   -3.1049   25.8850 O   0  0  0  0  0  0  0  0  0  0  0  0
    7.1405   -4.3244   25.8277 C   0  0  0  0  0  0  0  0  0  0  0  0
    5.8594   -4.3402   26.2189 C   0  0  0  0  0  0  0  0  0  0  0  0
    4.9707   -5.5192   25.9434 C   0  0  0  0  0  0  0  0  0  0  0  0
    5.2715   -3.3248   26.9244 N   0  0  0  0  0  0  0  0  0  0  0  0
    5.9467   -2.2453   27.1942 C   0  0  0  0  0  0  0  0  0  0  0  0
    5.4343   -1.2209   27.9696 N   0  0  0  0  0  0  0  0  0  0  0  0
    4.1594   -1.1476   28.5828 C   0  0  0  0  0  0  0  0  0  0  0  0
    3.4002    0.0314   28.6421 C   0  0  0  0  0  0  0  0  0  0  0  0
    2.1761    0.0645   29.3190 C   0  0  0  0  0  0  0  0  0  0  0  0
    1.7009   -1.0814   29.9412 C   0  0  0  0  0  0  0  0  0  0  0  0
    0.5244   -1.0263   30.5910 F   0  0  0  0  0  0  0  0  0  0  0  0
    2.4254   -2.2745   29.9033 C   0  0  0  0  0  0  0  0  0  0  0  0
    1.9229   -3.4997   30.5979 C   0  0  0  0  0  0  0  0  0  0  0  0
    3.6664   -2.2880   29.2459 C   0  0  0  0  0  0  0  0  0  0  0  0
    7.0959    3.2859   25.2755 C   0  0  0  0  0  0  0  0  0  0  0  0
    6.5084    4.4182   24.7081 C   0  0  0  0  0  0  0  0  0  0  0  0
    7.1970    5.1038   23.7436 O   0  0  0  0  0  0  0  0  0  0  0  0
    7.4769    4.2385   22.6395 C   0  0  0  0  0  0  0  0  0  0  0  0
    5.2624    4.8601   25.1537 C   0  0  0  0  0  0  0  0  0  0  0  0
    4.6810    5.9692   24.5848 O   0  0  0  0  0  0  0  0  0  0  0  0
    4.4723    6.9732   25.5759 C   0  0  0  0  0  0  0  0  0  0  0  0
  1  2  1  0
  2  3  1  0
  3  4  2  0
  4  5  1  0
  5  6  1  0
  6  7  1  0
  7  8  2  0
  7  9  1  0
  9 10  1  0
 10 11  1  0
 11 12  2  0
 11 13  1  0
 13 14  2  0
 14 15  1  0
 14 16  1  0
 16 17  2  0
 17 18  1  0
 18 19  1  0
 19 20  2  0
 20 21  1  0
 21 22  2  0
 22 23  1  0
 22 24  1  0
 24 25  1  0
 24 26  2  0
  5 27  2  0
 27 28  1  0
 28 29  1  0
 29 30  1  0
 28 31  2  0
 31 32  1  0
 32 33  1  0
 31  3  1  0
 17 10  1  0
 26 19  1  0
M  END
