
     RDKit          3D

 23 24  0  0  0  0  0  0  0  0999 V2000
   14.4520   -2.8735   26.1449 C   0  0  0  0  0  0  0  0  0  0  0  0
   13.5290   -2.0512   25.2504 C   0  0  0  0  0  0  0  0  0  0  0  0
   12.0842   -2.1701   25.5102 N   0  0  0  0  0  0  0  0  0  0  0  0
   11.5479   -3.5244   25.2857 C   0  0  0  0  0  0  0  0  0  0  0  0
   10.1438   -3.7351   25.8428 C   0  0  0  0  0  0  0  0  0  0  0  0
   11.2663   -1.1806   24.7867 C   0  0  0  0  0  0  0  0  0  0  0  0
   11.8299    0.2501   24.7514 C   0  0  0  0  0  0  0  0  0  0  0  0
   10.7284    1.3124   24.6171 C   0  0  0  0  0  0  0  0  0  0  0  0
   10.5422    1.7912   23.2385 N   0  0  0  0  0  0  0  0  0  0  0  0
    9.1535    1.7813   22.7448 C   0  0  0  0  0  0  0  0  0  0  0  0
    8.5610    0.4345   22.3886 C   0  0  0  0  0  0  0  0  0  0  0  0
    7.1809    0.2048   22.4840 C   0  0  0  0  0  0  0  0  0  0  0  0
    6.6413   -1.0399   22.1538 C   0  0  0  0  0  0  0  0  0  0  0  0
    7.4752   -2.0731   21.7321 C   0  0  0  0  0  0  0  0  0  0  0  0
    8.8496   -1.8649   21.6448 C   0  0  0  0  0  0  0  0  0  0  0  0
    9.3899   -0.6204   21.9740 C   0  0  0  0  0  0  0  0  0  0  0  0
   11.2790    3.0206   22.9033 C   0  0  1  0  0  0  0  0  0  0  0  0
   10.9871    4.2791   23.7466 C   0  0  0  0  0  0  0  0  0  0  0  0
   11.9619    5.3398   23.2483 C   0  0  0  0  0  0  0  0  0  0  0  0
   13.4761    4.4583   22.9032 S   0  0  0  0  0  0  0  0  0  0  0  0
   13.8490    4.7142   21.5267 O   0  0  0  0  0  0  0  0  0  0  0  0
   14.3981    4.6635   24.0010 O   0  0  0  0  0  0  0  0  0  0  0  0
   12.7968    2.8112   23.0180 C   0  0  0  0  0  0  0  0  0  0  0  0
  1  2  1  0
  2  3  1  0
  3  4  1  0
  4  5  1  0
  3  6  1  0
  6  7  1  0
  7  8  1  0
  8  9  1  0
  9 10  1  0
 10 11  1  0
 11 12  2  0
 12 13  1  0
 13 14  2  0
 14 15  1  0
 15 16  2  0
 17  9  1  1
 17 18  1  0
 18 19  1  0
 19 20  1  0
 20 21  2  0
 20 22  2  0
 20 23  1  0
 16 11  1  0
 23 17  1  0
M  END
