
     RDKit          3D

 24 25  0  0  0  0  0  0  0  0999 V2000
    8.8130   -5.2453   29.0585 C   0  0  0  0  0  0  0  0  0  0  0  0
    8.7417   -5.9283   27.6965 C   0  0  0  0  0  0  0  0  0  0  0  0
    8.5679   -4.9994   26.5671 N   0  0  0  0  0  0  0  0  0  0  0  0
    8.2390   -5.7558   25.3457 C   0  0  0  0  0  0  0  0  0  0  0  0
    7.8088   -4.8844   24.1698 C   0  0  0  0  0  0  0  0  0  0  0  0
    9.6768   -4.0425   26.3940 C   0  0  0  0  0  0  0  0  0  0  0  0
   11.0675   -4.6464   26.1442 C   0  0  0  0  0  0  0  0  0  0  0  0
   12.1482   -3.5821   25.9008 C   0  0  0  0  0  0  0  0  0  0  0  0
   11.9698   -2.9109   24.6144 N   0  0  0  0  0  0  0  0  0  0  0  0
   12.6289   -1.5899   24.4991 C   0  0  2  0  0  0  0  0  0  0  0  0
   11.7497   -0.3959   24.8815 C   0  0  0  0  0  0  0  0  0  0  0  0
   12.5522    0.9065   24.8137 C   0  0  0  0  0  0  0  0  0  0  0  0
   13.1283    1.1180   23.4748 N   0  0  0  0  0  0  0  0  0  0  0  0
   13.8441    2.4069   23.4342 C   0  0  0  0  0  0  0  0  0  0  0  0
   12.9148    3.6039   23.4103 C   0  0  0  0  0  0  0  0  0  0  0  0
   11.5758    3.4610   23.0125 C   0  0  0  0  0  0  0  0  0  0  0  0
   10.7268    4.5687   22.9844 C   0  0  0  0  0  0  0  0  0  0  0  0
   11.2148    5.8177   23.3501 C   0  0  0  0  0  0  0  0  0  0  0  0
   10.3971    6.8783   23.3233 F   0  0  0  0  0  0  0  0  0  0  0  0
   12.5370    5.9826   23.7430 C   0  0  0  0  0  0  0  0  0  0  0  0
   13.3877    4.8772   23.7715 C   0  0  0  0  0  0  0  0  0  0  0  0
   14.0154   -0.0006   23.1095 C   0  0  0  0  0  0  0  0  0  0  0  0
   13.2757   -1.3515   23.1157 C   0  0  1  0  0  0  0  0  0  0  0  0
   14.1878   -2.4201   22.8305 O   0  0  0  0  0  0  0  0  0  0  0  0
  1  2  1  0
  2  3  1  0
  3  4  1  0
  4  5  1  0
  3  6  1  0
  6  7  1  0
  7  8  1  0
  8  9  1  0
 10  9  1  6
 10 11  1  0
 11 12  1  0
 12 13  1  0
 13 14  1  0
 14 15  1  0
 15 16  2  0
 16 17  1  0
 17 18  2  0
 18 19  1  0
 18 20  1  0
 20 21  2  0
 13 22  1  0
 22 23  1  0
 23 24  1  1
 23 10  1  0
 21 15  1  0
M  END
