
     RDKit          3D

 23 25  0  0  0  0  0  0  0  0999 V2000
   13.6652   -0.6748   25.2481 C   0  0  0  0  0  0  0  0  0  0  0  0
   12.4767   -0.9625   24.4790 N   0  0  0  0  0  0  0  0  0  0  0  0
   12.5122   -1.7955   23.3062 C   0  0  0  0  0  0  0  0  0  0  0  0
   11.1192   -1.6248   22.7267 C   0  0  0  0  0  0  0  0  0  0  0  0
   10.2238   -1.3944   23.9620 C   0  0  2  0  0  0  0  0  0  0  0  0
    9.7749   -2.7153   24.6081 C   0  0  0  0  0  0  0  0  0  0  0  0
    8.7529   -3.4066   23.8088 N   0  0  0  0  0  0  0  0  0  0  0  0
    8.5000   -4.7747   23.9603 C   0  0  0  0  0  0  0  0  0  0  0  0
    9.3498   -5.5864   24.3147 O   0  0  0  0  0  0  0  0  0  0  0  0
    7.1330   -5.2764   23.7101 C   0  0  0  0  0  0  0  0  0  0  0  0
    6.7725   -5.7424   22.4378 C   0  0  0  0  0  0  0  0  0  0  0  0
    5.4712   -6.1919   22.2081 C   0  0  0  0  0  0  0  0  0  0  0  0
    4.5361   -6.1608   23.2434 C   0  0  0  0  0  0  0  0  0  0  0  0
    4.9039   -5.6716   24.4948 C   0  0  0  0  0  0  0  0  0  0  0  0
    3.9953   -5.6364   25.4780 F   0  0  0  0  0  0  0  0  0  0  0  0
    6.1935   -5.2198   24.7401 C   0  0  0  0  0  0  0  0  0  0  0  0
    7.5999   -2.5844   23.4047 C   0  0  0  0  0  0  0  0  0  0  0  0
    7.9848   -1.2252   22.8223 C   0  0  0  0  0  0  0  0  0  0  0  0
    6.8813   -0.4470   22.6931 F   0  0  0  0  0  0  0  0  0  0  0  0
    8.4851   -1.3895   21.5687 F   0  0  0  0  0  0  0  0  0  0  0  0
    9.0120   -0.5018   23.6747 C   0  0  0  0  0  0  0  0  0  0  0  0
   11.1868   -0.7206   24.9253 C   0  0  0  0  0  0  0  0  0  0  0  0
   10.8668   -0.1354   25.9466 O   0  0  0  0  0  0  0  0  0  0  0  0
  1  2  1  0
  2  3  1  0
  3  4  1  0
  5  4  1  6
  5  6  1  0
  6  7  1  0
  7  8  1  0
  8  9  2  0
  8 10  1  0
 10 11  2  0
 11 12  1  0
 12 13  2  0
 13 14  1  0
 14 15  1  0
 14 16  2  0
  7 17  1  0
 17 18  1  0
 18 19  1  0
 18 20  1  0
 18 21  1  0
  5 22  1  0
 22 23  2  0
 22  2  1  0
 21  5  1  0
 16 10  1  0
M  END
