
     RDKit          3D

 23 25  0  0  0  0  0  0  0  0999 V2000
    7.6750   -4.2366   24.6835 C   0  0  0  0  0  0  0  0  0  0  0  0
    7.9504   -3.0231   23.9506 N   0  0  0  0  0  0  0  0  0  0  0  0
    8.8315   -3.0047   22.8114 C   0  0  0  0  0  0  0  0  0  0  0  0
    8.6280   -1.6091   22.2510 C   0  0  0  0  0  0  0  0  0  0  0  0
    8.3245   -0.7472   23.4940 C   0  0  1  0  0  0  0  0  0  0  0  0
    9.6023   -0.2707   24.2037 C   0  0  0  0  0  0  0  0  0  0  0  0
   10.3030    0.7738   23.4451 N   0  0  0  0  0  0  0  0  0  0  0  0
   11.6661    1.0438   23.6127 C   0  0  0  0  0  0  0  0  0  0  0  0
   12.1554    2.1559   23.4231 O   0  0  0  0  0  0  0  0  0  0  0  0
   12.5804   -0.0240   24.0575 C   0  0  0  0  0  0  0  0  0  0  0  0
   13.2682    0.1382   25.2659 C   0  0  0  0  0  0  0  0  0  0  0  0
   14.1679   -0.8422   25.6899 C   0  0  0  0  0  0  0  0  0  0  0  0
   14.3932   -1.9733   24.9022 C   0  0  0  0  0  0  0  0  0  0  0  0
   13.7255   -2.1220   23.6857 C   0  0  0  0  0  0  0  0  0  0  0  0
   12.8286   -1.1429   23.2650 C   0  0  0  0  0  0  0  0  0  0  0  0
   12.2049   -1.3085   22.0896 F   0  0  0  0  0  0  0  0  0  0  0  0
    9.4727    1.9055   22.9979 C   0  0  0  0  0  0  0  0  0  0  0  0
    8.1361    1.4988   22.3770 C   0  0  0  0  0  0  0  0  0  0  0  0
    8.3380    1.0259   21.1188 F   0  0  0  0  0  0  0  0  0  0  0  0
    7.3377    2.5892   22.2485 F   0  0  0  0  0  0  0  0  0  0  0  0
    7.4112    0.4446   23.1943 C   0  0  0  0  0  0  0  0  0  0  0  0
    7.6451   -1.7511   24.4102 C   0  0  0  0  0  0  0  0  0  0  0  0
    7.0086   -1.4718   25.4128 O   0  0  0  0  0  0  0  0  0  0  0  0
  1  2  1  0
  2  3  1  0
  3  4  1  0
  5  4  1  6
  5  6  1  0
  6  7  1  0
  7  8  1  0
  8  9  2  0
  8 10  1  0
 10 11  2  0
 11 12  1  0
 12 13  2  0
 13 14  1  0
 14 15  2  0
 15 16  1  0
  7 17  1  0
 17 18  1  0
 18 19  1  0
 18 20  1  0
 18 21  1  0
  5 22  1  0
 22 23  2  0
 22  2  1  0
 21  5  1  0
 15 10  1  0
M  END
