
     RDKit          3D

 23 25  0  0  0  0  0  0  0  0999 V2000
   12.3985    3.3500   22.5721 C   0  0  0  0  0  0  0  0  0  0  0  0
   12.4170    2.1857   23.4257 N   0  0  0  0  0  0  0  0  0  0  0  0
   11.2105    1.6403   23.9949 C   0  0  0  0  0  0  0  0  0  0  0  0
   11.7433    0.5912   24.9538 C   0  0  0  0  0  0  0  0  0  0  0  0
   13.0120    0.0656   24.2518 C   0  0  2  0  0  0  0  0  0  0  0  0
   12.7103   -1.0103   23.1914 C   0  0  0  0  0  0  0  0  0  0  0  0
   12.3222   -2.2756   23.8167 N   0  0  0  0  0  0  0  0  0  0  0  0
   10.9837   -2.6604   23.7646 C   0  0  0  0  0  0  0  0  0  0  0  0
   10.1799   -2.1702   22.9730 O   0  0  0  0  0  0  0  0  0  0  0  0
   10.4756   -3.6800   24.7002 C   0  0  0  0  0  0  0  0  0  0  0  0
   10.9957   -3.7260   25.9986 C   0  0  0  0  0  0  0  0  0  0  0  0
   10.5024   -4.6618   26.9106 C   0  0  0  0  0  0  0  0  0  0  0  0
    9.4822   -5.5376   26.5326 C   0  0  0  0  0  0  0  0  0  0  0  0
    8.9484   -5.4749   25.2444 C   0  0  0  0  0  0  0  0  0  0  0  0
    9.4421   -4.5414   24.3365 C   0  0  0  0  0  0  0  0  0  0  0  0
    8.9073   -4.4958   23.1075 F   0  0  0  0  0  0  0  0  0  0  0  0
   13.3114   -2.8209   24.7627 C   0  0  0  0  0  0  0  0  0  0  0  0
   13.6981   -1.7914   25.8311 C   0  0  0  0  0  0  0  0  0  0  0  0
   14.7320   -2.2657   26.5707 F   0  0  0  0  0  0  0  0  0  0  0  0
   12.6592   -1.6238   26.6923 F   0  0  0  0  0  0  0  0  0  0  0  0
   14.0783   -0.4453   25.2321 C   0  0  0  0  0  0  0  0  0  0  0  0
   13.4858    1.3051   23.5098 C   0  0  0  0  0  0  0  0  0  0  0  0
   14.5948    1.4542   23.0230 O   0  0  0  0  0  0  0  0  0  0  0  0
  1  2  1  0
  2  3  1  0
  3  4  1  0
  5  4  1  1
  5  6  1  0
  6  7  1  0
  7  8  1  0
  8  9  2  0
  8 10  1  0
 10 11  2  0
 11 12  1  0
 12 13  2  0
 13 14  1  0
 14 15  2  0
 15 16  1  0
  7 17  1  0
 17 18  1  0
 18 19  1  0
 18 20  1  0
 18 21  1  0
  5 22  1  0
 22 23  2  0
 22  2  1  0
 21  5  1  0
 15 10  1  0
M  END
