
     RDKit          3D

 23 25  0  0  0  0  0  0  0  0999 V2000
    8.3822   -3.4874   23.6595 C   0  0  0  0  0  0  0  0  0  0  0  0
    9.0472   -2.2738   24.0724 N   0  0  0  0  0  0  0  0  0  0  0  0
    8.3140   -1.1107   24.4987 C   0  0  0  0  0  0  0  0  0  0  0  0
    9.4099   -0.2123   25.0420 C   0  0  0  0  0  0  0  0  0  0  0  0
   10.6342   -0.5344   24.1573 C   0  0  1  0  0  0  0  0  0  0  0  0
   10.6033    0.2280   22.8189 C   0  0  0  0  0  0  0  0  0  0  0  0
   11.2213    1.5451   22.9585 N   0  0  0  0  0  0  0  0  0  0  0  0
   10.4193    2.6797   22.9049 C   0  0  0  0  0  0  0  0  0  0  0  0
    9.2340    2.6501   22.5847 O   0  0  0  0  0  0  0  0  0  0  0  0
   11.0046    3.9887   23.2678 C   0  0  0  0  0  0  0  0  0  0  0  0
   12.1018    4.5054   22.5656 C   0  0  0  0  0  0  0  0  0  0  0  0
   12.6246    5.7525   22.9141 C   0  0  0  0  0  0  0  0  0  0  0  0
   12.0419    6.4828   23.9503 C   0  0  0  0  0  0  0  0  0  0  0  0
   10.9362    5.9680   24.6220 C   0  0  0  0  0  0  0  0  0  0  0  0
   10.3763    6.6806   25.6080 F   0  0  0  0  0  0  0  0  0  0  0  0
   10.4043    4.7298   24.2875 C   0  0  0  0  0  0  0  0  0  0  0  0
   12.6409    1.5369   23.3564 C   0  0  0  0  0  0  0  0  0  0  0  0
   13.0656    0.2341   24.0499 C   0  0  0  0  0  0  0  0  0  0  0  0
   13.4268   -0.6796   23.1163 F   0  0  0  0  0  0  0  0  0  0  0  0
   14.1671    0.4660   24.8087 F   0  0  0  0  0  0  0  0  0  0  0  0
   11.9549   -0.3283   24.9277 C   0  0  0  0  0  0  0  0  0  0  0  0
   10.3871   -2.0029   23.8354 C   0  0  0  0  0  0  0  0  0  0  0  0
   11.2152   -2.7794   23.3899 O   0  0  0  0  0  0  0  0  0  0  0  0
  1  2  1  0
  2  3  1  0
  3  4  1  0
  5  4  1  1
  5  6  1  0
  6  7  1  0
  7  8  1  0
  8  9  2  0
  8 10  1  0
 10 11  2  0
 11 12  1  0
 12 13  2  0
 13 14  1  0
 14 15  1  0
 14 16  2  0
  7 17  1  0
 17 18  1  0
 18 19  1  0
 18 20  1  0
 18 21  1  0
  5 22  1  0
 22 23  2  0
 22  2  1  0
 21  5  1  0
 16 10  1  0
M  END
