
     RDKit          3D

 24 26  0  0  0  0  0  0  0  0999 V2000
    7.9225   -2.8694   22.1388 C   0  0  0  0  0  0  0  0  0  0  0  0
    8.3391   -3.2500   23.5315 C   0  0  0  0  0  0  0  0  0  0  0  0
    8.2347   -4.5867   23.9485 C   0  0  0  0  0  0  0  0  0  0  0  0
    8.6010   -4.9475   25.2435 C   0  0  0  0  0  0  0  0  0  0  0  0
    8.4987   -6.2291   25.6203 F   0  0  0  0  0  0  0  0  0  0  0  0
    9.0650   -3.9913   26.1385 C   0  0  0  0  0  0  0  0  0  0  0  0
    9.4121   -4.3450   27.3834 F   0  0  0  0  0  0  0  0  0  0  0  0
    9.1734   -2.6612   25.7555 C   0  0  0  0  0  0  0  0  0  0  0  0
    8.8189   -2.2946   24.4501 C   0  0  0  0  0  0  0  0  0  0  0  0
    8.9156   -0.8643   24.0855 C   0  0  0  0  0  0  0  0  0  0  0  0
    8.1263   -0.0838   24.6093 O   0  0  0  0  0  0  0  0  0  0  0  0
    9.9113   -0.4714   23.1936 N   0  0  0  0  0  0  0  0  0  0  0  0
   11.0699   -1.3485   23.0125 C   0  0  0  0  0  0  0  0  0  0  0  0
   12.3144   -0.7865   23.7263 C   0  0  1  0  0  0  0  0  0  0  0  0
   12.2512   -0.9377   25.2616 C   0  0  0  0  0  0  0  0  0  0  0  0
   12.7146   -2.3635   25.5054 C   0  0  0  0  0  0  0  0  0  0  0  0
   13.6489   -2.5815   24.4417 N   0  0  0  0  0  0  0  0  0  0  0  0
   13.4770   -1.7035   23.3929 C   0  0  0  0  0  0  0  0  0  0  0  0
   14.1203   -1.7109   22.3584 O   0  0  0  0  0  0  0  0  0  0  0  0
   12.5874    0.6545   23.2689 C   0  0  0  0  0  0  0  0  0  0  0  0
   11.3561    1.5381   23.4059 C   0  0  0  0  0  0  0  0  0  0  0  0
   11.6059    2.7525   22.8565 F   0  0  0  0  0  0  0  0  0  0  0  0
   11.1027    1.7587   24.7230 F   0  0  0  0  0  0  0  0  0  0  0  0
   10.1194    0.9169   22.7464 C   0  0  0  0  0  0  0  0  0  0  0  0
  1  2  1  0
  2  3  2  0
  3  4  1  0
  4  5  1  0
  4  6  2  0
  6  7  1  0
  6  8  1  0
  8  9  2  0
  9 10  1  0
 10 11  2  0
 10 12  1  0
 12 13  1  0
 14 13  1  6
 14 15  1  0
 15 16  1  0
 16 17  1  0
 17 18  1  0
 18 19  2  0
 14 20  1  0
 20 21  1  0
 21 22  1  0
 21 23  1  0
 21 24  1  0
  9  2  1  0
 24 12  1  0
 18 14  1  0
M  END
