
     RDKit          3D

  9  9  0  0  0  0  0  0  0  0999 V2000
    9.6433   -5.1521   26.3172 N   0  0  0  0  0  0  0  0  0  0  0  0
   10.4807   -4.3329   25.5535 C   0  0  0  0  0  0  0  0  0  0  0  0
    9.9733   -3.6408   24.4550 C   0  0  0  0  0  0  0  0  0  0  0  0
   10.7693   -2.7281   23.7570 C   0  0  0  0  0  0  0  0  0  0  0  0
   12.0785   -2.4615   24.1758 C   0  0  0  0  0  0  0  0  0  0  0  0
   13.1496   -1.0726   23.0221 I   0  0  0  0  0  0  0  0  0  0  0  0
   12.5771   -3.1054   25.3139 C   0  0  0  0  0  0  0  0  0  0  0  0
   14.4976   -2.7962   26.1112 I   0  0  0  0  0  0  0  0  0  0  0  0
   11.7656   -4.0206   26.0053 C   0  0  0  0  0  0  0  0  0  0  0  0
  1  2  1  0
  2  3  2  0
  3  4  1  0
  4  5  2  0
  5  6  1  0
  5  7  1  0
  7  8  1  0
  7  9  2  0
  9  2  1  0
M  END
