
     RDKit          3D

 31 35  0  0  0  0  0  0  0  0999 V2000
    8.9619   -4.7337   28.6572 C   0  0  0  0  0  0  0  0  0  0  0  0
    7.9443   -3.8966   29.1899 O   0  0  0  0  0  0  0  0  0  0  0  0
    6.7153   -3.9360   28.5850 C   0  0  0  0  0  0  0  0  0  0  0  0
    5.5423   -4.3690   29.2072 C   0  0  0  0  0  0  0  0  0  0  0  0
    4.3276   -4.3733   28.5106 C   0  0  0  0  0  0  0  0  0  0  0  0
    4.2513   -3.9290   27.1822 C   0  0  0  0  0  0  0  0  0  0  0  0
    2.9444   -3.9397   26.4888 C   0  0  0  0  0  0  0  0  0  0  0  0
    2.4408   -5.1029   26.0339 C   0  0  0  0  0  0  0  0  0  0  0  0
    1.1314   -5.0192   25.3364 C   0  0  0  0  0  0  0  0  0  0  0  0
    0.4267   -3.9480   25.1448 N   0  0  0  0  0  0  0  0  0  0  0  0
    0.9576   -2.7919   25.6411 C   0  0  0  0  0  0  0  0  0  0  0  0
    0.4581   -1.5763   25.6131 N   0  0  0  0  0  0  0  0  0  0  0  0
    1.3970   -0.8174   26.2599 C   0  0  0  0  0  0  0  0  0  0  0  0
    1.2222    0.6536   26.4987 C   0  0  1  0  0  0  0  0  0  0  0  0
    2.1862    1.4827   25.6506 C   0  0  0  0  0  0  0  0  0  0  0  0
    2.1190    2.8721   26.0120 O   0  0  0  0  0  0  0  0  0  0  0  0
    0.8192    3.2951   26.1211 C   0  0  0  0  0  0  0  0  0  0  0  0
    0.6084    4.6724   26.1541 C   0  0  0  0  0  0  0  0  0  0  0  0
   -0.6903    5.1768   26.2410 C   0  0  0  0  0  0  0  0  0  0  0  0
   -1.7774    4.3029   26.2957 C   0  0  0  0  0  0  0  0  0  0  0  0
   -1.5667    2.9227   26.2780 C   0  0  0  0  0  0  0  0  0  0  0  0
   -0.2680    2.4195   26.2062 C   0  0  0  0  0  0  0  0  0  0  0  0
   -0.1368    1.0547   26.2204 O   0  0  0  0  0  0  0  0  0  0  0  0
    2.4811   -1.4879   26.6692 N   0  0  0  0  0  0  0  0  0  0  0  0
    2.1985   -2.7655   26.2978 N   0  0  0  0  0  0  0  0  0  0  0  0
    5.4269   -3.4728   26.5621 C   0  0  0  0  0  0  0  0  0  0  0  0
    5.3473   -3.0567   25.2523 O   0  0  0  0  0  0  0  0  0  0  0  0
    4.9911   -4.1284   24.3780 C   0  0  0  0  0  0  0  0  0  0  0  0
    6.6562   -3.5181   27.2447 C   0  0  0  0  0  0  0  0  0  0  0  0
    7.7844   -3.0896   26.5849 O   0  0  0  0  0  0  0  0  0  0  0  0
    7.6150   -1.7614   26.0865 C   0  0  0  0  0  0  0  0  0  0  0  0
  1  2  1  0
  2  3  1  0
  3  4  2  0
  4  5  1  0
  5  6  2  0
  6  7  1  0
  7  8  2  0
  8  9  1  0
  9 10  2  0
 10 11  1  0
 11 12  2  0
 12 13  1  0
 14 13  1  6
 14 15  1  0
 15 16  1  0
 16 17  1  0
 17 18  2  0
 18 19  1  0
 19 20  2  0
 20 21  1  0
 21 22  2  0
 22 23  1  0
 13 24  2  0
 24 25  1  0
  6 26  1  0
 26 27  1  0
 27 28  1  0
 26 29  2  0
 29 30  1  0
 30 31  1  0
 29  3  1  0
 25  7  1  0
 25 11  1  0
 23 14  1  0
 22 17  1  0
M  END
