
     RDKit          3D

 33 34  0  0  0  0  0  0  0  0999 V2000
    3.9623    3.5823   21.1191 C   0  0  0  0  0  0  0  0  0  0  0  0
    3.6586    2.6992   19.9126 C   0  0  0  0  0  0  0  0  0  0  0  0
    4.7703    1.7904   19.5803 N   0  0  0  0  0  0  0  0  0  0  0  0
    4.7085    1.3330   18.1833 C   0  0  0  0  0  0  0  0  0  0  0  0
    5.9787    0.6311   17.7095 C   0  0  0  0  0  0  0  0  0  0  0  0
    4.8748    0.6993   20.5701 C   0  0  0  0  0  0  0  0  0  0  0  0
    6.2762    0.4206   21.1374 C   0  0  0  0  0  0  0  0  0  0  0  0
    6.7769   -0.9693   20.7389 C   0  0  0  0  0  0  0  0  0  0  0  0
    7.9034   -1.4020   21.5593 N   0  0  0  0  0  0  0  0  0  0  0  0
    7.8888   -1.8213   22.8736 C   0  0  0  0  0  0  0  0  0  0  0  0
    6.4791   -1.8785   23.7897 S   0  0  0  0  0  0  0  0  0  0  0  0
    9.1611   -2.1702   23.3646 N   0  0  0  0  0  0  0  0  0  0  0  0
    9.3824   -2.4990   24.7928 C   0  0  0  0  0  0  0  0  0  0  0  0
    9.4864   -4.0217   25.0355 C   0  0  0  0  0  0  0  0  0  0  0  0
   10.2098   -4.3499   26.2835 N   0  0  0  0  0  0  0  0  0  0  0  0
    9.5393   -5.4384   27.0139 C   0  0  0  0  0  0  0  0  0  0  0  0
    9.1683   -5.0726   28.4477 C   0  0  0  0  0  0  0  0  0  0  0  0
   11.6388   -4.5922   26.0214 C   0  0  0  0  0  0  0  0  0  0  0  0
   12.5118   -3.3589   25.8113 C   0  0  0  0  0  0  0  0  0  0  0  0
   10.3800   -2.0880   22.5361 C   0  0  0  0  0  0  0  0  0  0  0  0
   11.1089   -0.7926   22.7517 C   0  0  0  0  0  0  0  0  0  0  0  0
   10.4844    0.3858   22.9356 C   0  0  0  0  0  0  0  0  0  0  0  0
   11.2434    1.6186   23.1387 C   0  0  0  0  0  0  0  0  0  0  0  0
   10.6097    2.8419   23.3648 C   0  0  0  0  0  0  0  0  0  0  0  0
   11.3690    4.0034   23.5552 C   0  0  0  0  0  0  0  0  0  0  0  0
   12.7647    3.9472   23.5211 C   0  0  0  0  0  0  0  0  0  0  0  0
   13.6159    5.0036   23.6913 O   0  0  0  0  0  0  0  0  0  0  0  0
   13.3862    6.1543   22.8865 C   0  0  0  0  0  0  0  0  0  0  0  0
   13.3983    2.7212   23.2979 C   0  0  0  0  0  0  0  0  0  0  0  0
   12.6391    1.5674   23.1092 C   0  0  0  0  0  0  0  0  0  0  0  0
   13.2727    0.3403   22.8829 N   0  0  0  0  0  0  0  0  0  0  0  0
   12.6006   -0.8358   22.6888 C   0  0  0  0  0  0  0  0  0  0  0  0
   13.2044   -1.8828   22.4683 O   0  0  0  0  0  0  0  0  0  0  0  0
  1  2  1  0
  2  3  1  0
  3  4  1  0
  4  5  1  0
  3  6  1  0
  6  7  1  0
  7  8  1  0
  8  9  1  0
  9 10  1  0
 10 11  2  0
 10 12  1  0
 12 13  1  0
 13 14  1  0
 14 15  1  0
 15 16  1  0
 16 17  1  0
 15 18  1  0
 18 19  1  0
 12 20  1  0
 20 21  1  0
 21 22  2  0
 22 23  1  0
 23 24  2  0
 24 25  1  0
 25 26  2  0
 26 27  1  0
 27 28  1  0
 26 29  1  0
 29 30  2  0
 30 31  1  0
 31 32  1  0
 32 33  2  0
 32 21  1  0
 30 23  1  0
M  END
