
     RDKit          3D

 25 27  0  0  0  0  0  0  0  0999 V2000
   13.8888   -0.1534   23.6881 C   0  0  0  0  0  0  0  0  0  0  0  0
   12.5597    0.2424   24.0011 O   0  0  0  0  0  0  0  0  0  0  0  0
   11.5442   -0.6040   23.6364 C   0  0  0  0  0  0  0  0  0  0  0  0
   11.5106   -1.9719   23.9209 C   0  0  0  0  0  0  0  0  0  0  0  0
   10.4394   -2.7561   23.4896 C   0  0  0  0  0  0  0  0  0  0  0  0
    9.4005   -2.1828   22.7571 C   0  0  0  0  0  0  0  0  0  0  0  0
    9.4125   -0.8138   22.4507 C   0  0  0  0  0  0  0  0  0  0  0  0
    8.2703   -0.2866   21.6356 C   0  0  0  0  0  0  0  0  0  0  0  0
    8.0994   -0.7453   20.5106 O   0  0  0  0  0  0  0  0  0  0  0  0
    7.5141    0.7062   22.2282 N   0  0  0  0  0  0  0  0  0  0  0  0
    6.3931    1.3785   21.7006 C   0  0  0  0  0  0  0  0  0  0  0  0
    5.5404    0.6211   20.8587 C   0  0  0  0  0  0  0  0  0  0  0  0
    4.3965    1.1801   20.2743 C   0  0  0  0  0  0  0  0  0  0  0  0
    4.1341    2.5019   20.5528 C   0  0  0  0  0  0  0  0  0  0  0  0
    4.9673    3.2549   21.3802 C   0  0  0  0  0  0  0  0  0  0  0  0
    6.0989    2.7206   21.9653 C   0  0  0  0  0  0  0  0  0  0  0  0
    4.4332    4.5479   21.4643 N   0  0  0  0  0  0  0  0  0  0  0  0
    4.9971    5.6263   22.2230 C   0  0  0  0  0  0  0  0  0  0  0  0
    3.2569    4.6133   20.6872 C   0  0  0  0  0  0  0  0  0  0  0  0
    2.5315    5.5826   20.5297 O   0  0  0  0  0  0  0  0  0  0  0  0
    3.0873    3.3277   20.1265 N   0  0  0  0  0  0  0  0  0  0  0  0
    2.0153    2.9303   19.2622 C   0  0  0  0  0  0  0  0  0  0  0  0
   10.4741   -0.0231   22.9258 C   0  0  0  0  0  0  0  0  0  0  0  0
   10.5017    1.3270   22.6459 O   0  0  0  0  0  0  0  0  0  0  0  0
   10.3579    2.0823   23.8544 C   0  0  0  0  0  0  0  0  0  0  0  0
  1  2  1  0
  2  3  1  0
  3  4  2  0
  4  5  1  0
  5  6  2  0
  6  7  1  0
  7  8  1  0
  8  9  2  0
  8 10  1  0
 10 11  1  0
 11 12  2  0
 12 13  1  0
 13 14  2  0
 14 15  1  0
 15 16  2  0
 15 17  1  0
 17 18  1  0
 17 19  1  0
 19 20  2  0
 19 21  1  0
 21 22  1  0
  7 23  2  0
 23 24  1  0
 24 25  1  0
 23  3  1  0
 16 11  1  0
 21 14  1  0
M  END
