
     RDKit          3D

 30 32  0  0  0  0  0  0  0  0999 V2000
    2.5884    5.7088   29.2908 C   0  0  0  0  0  0  0  0  0  0  0  0
    3.6148    4.7291   29.2126 O   0  0  0  0  0  0  0  0  0  0  0  0
    4.8197    5.1160   28.6829 C   0  0  0  0  0  0  0  0  0  0  0  0
    5.0038    6.2117   27.8331 C   0  0  0  0  0  0  0  0  0  0  0  0
    6.2739    6.5263   27.3396 C   0  0  0  0  0  0  0  0  0  0  0  0
    6.5322    7.6211   26.4907 N   0  0  0  0  0  0  0  0  0  0  0  0
    5.7974    8.7836   26.3375 C   0  0  0  0  0  0  0  0  0  0  0  0
    4.7558    9.0725   26.9182 O   0  0  0  0  0  0  0  0  0  0  0  0
    6.4079    9.7417   25.3095 C   0  0  0  0  0  0  0  0  0  0  0  0
    6.6793   11.0205   25.9015 O   0  0  0  0  0  0  0  0  0  0  0  0
    6.9021   11.9811   24.9449 C   0  0  0  0  0  0  0  0  0  0  0  0
    5.9040   12.1931   23.9757 C   0  0  0  0  0  0  0  0  0  0  0  0
    6.0696   13.1470   22.9675 C   0  0  0  0  0  0  0  0  0  0  0  0
    5.0089   13.3527   21.9276 C   0  0  0  0  0  0  0  0  0  0  0  0
    7.2667   13.8575   22.9143 C   0  0  0  0  0  0  0  0  0  0  0  0
    8.2647   13.6131   23.8636 C   0  0  0  0  0  0  0  0  0  0  0  0
    9.4356   14.3839   23.7041 O   0  0  0  0  0  0  0  0  0  0  0  0
   10.5108   14.2425   24.5572 C   0  0  0  0  0  0  0  0  0  0  0  0
   11.5402   14.8962   24.4375 O   0  0  0  0  0  0  0  0  0  0  0  0
   10.3658   13.2554   25.6333 C   0  0  0  0  0  0  0  0  0  0  0  0
    9.2674   12.5061   25.8203 C   0  0  0  0  0  0  0  0  0  0  0  0
    9.2287   11.5213   26.9510 C   0  0  0  0  0  0  0  0  0  0  0  0
    8.1260   12.6741   24.8946 C   0  0  0  0  0  0  0  0  0  0  0  0
    7.3715    5.7280   27.6949 C   0  0  0  0  0  0  0  0  0  0  0  0
    7.2121    4.6278   28.5414 C   0  0  0  0  0  0  0  0  0  0  0  0
    8.2264    3.7994   28.9494 O   0  0  0  0  0  0  0  0  0  0  0  0
    8.8496    4.0900   30.1920 C   0  0  0  0  0  0  0  0  0  0  0  0
    5.9346    4.3431   29.0470 C   0  0  0  0  0  0  0  0  0  0  0  0
    5.7629    3.2381   29.8518 O   0  0  0  0  0  0  0  0  0  0  0  0
    5.9011    2.0493   29.0753 C   0  0  0  0  0  0  0  0  0  0  0  0
  1  2  1  0
  2  3  1  0
  3  4  2  0
  4  5  1  0
  5  6  1  0
  6  7  1  0
  7  8  2  0
  7  9  1  0
  9 10  1  0
 10 11  1  0
 11 12  2  0
 12 13  1  0
 13 14  1  0
 13 15  2  0
 15 16  1  0
 16 17  1  0
 17 18  1  0
 18 19  2  0
 18 20  1  0
 20 21  2  0
 21 22  1  0
 21 23  1  0
  5 24  2  0
 24 25  1  0
 25 26  1  0
 26 27  1  0
 25 28  2  0
 28 29  1  0
 29 30  1  0
 28  3  1  0
 23 11  1  0
 23 16  2  0
M  END
