
     RDKit          3D

 24 26  0  0  0  0  0  0  0  0999 V2000
    9.1157    7.0113   22.9034 C   0  0  0  0  0  0  0  0  0  0  0  0
    9.9463    5.8975   23.3747 N   0  0  0  0  0  0  0  0  0  0  0  0
   10.0333    5.9339   24.8362 C   0  0  0  0  0  0  0  0  0  0  0  0
   11.3005    5.9606   22.7897 C   0  0  0  0  0  0  0  0  0  0  0  0
   12.1507    4.8090   23.1890 C   0  0  0  0  0  0  0  0  0  0  0  0
   11.9000    3.5010   23.5272 C   0  0  0  0  0  0  0  0  0  0  0  0
   13.1746    2.9612   23.8091 C   0  0  0  0  0  0  0  0  0  0  0  0
   13.5137    1.5722   24.2258 C   0  0  0  0  0  0  0  0  0  0  0  0
   12.3193    0.6374   24.0612 C   0  0  2  0  0  0  0  0  0  0  0  0
   11.4796    0.3311   25.3333 C   0  0  0  0  0  0  0  0  0  0  0  0
   11.1915   -1.0630   24.7265 C   0  0  2  0  0  0  0  0  0  0  0  0
   11.3010   -2.0871   25.7661 N   0  0  0  0  0  0  0  0  0  0  0  0
   10.5311   -3.3118   25.4751 C   0  0  0  0  0  0  0  0  0  0  0  0
    9.0326   -3.1557   25.7708 C   0  0  0  0  0  0  0  0  0  0  0  0
    8.2702   -4.4273   25.3858 C   0  0  0  0  0  0  0  0  0  0  0  0
    8.8070   -5.6575   25.9789 N   0  0  0  0  0  0  0  0  0  0  0  0
    8.5034   -5.7653   27.4042 C   0  0  0  0  0  0  0  0  0  0  0  0
   10.2423   -5.8043   25.7022 C   0  0  0  0  0  0  0  0  0  0  0  0
   11.0856   -4.5929   26.1100 C   0  0  0  0  0  0  0  0  0  0  0  0
   12.5571   -0.9221   23.9471 C   0  0  0  0  0  0  0  0  0  0  0  0
   12.4580   -1.4320   22.5064 C   0  0  0  0  0  0  0  0  0  0  0  0
   13.8506   -1.4332   24.5972 C   0  0  0  0  0  0  0  0  0  0  0  0
   14.1362    3.8808   23.6565 N   0  0  0  0  0  0  0  0  0  0  0  0
   13.4889    5.0406   23.2685 O   0  0  0  0  0  0  0  0  0  0  0  0
  1  2  1  0
  2  3  1  0
  2  4  1  0
  4  5  1  0
  5  6  2  0
  6  7  1  0
  7  8  1  0
  9  8  1  1
  9 10  1  0
 10 11  1  0
 11 12  1  1
 12 13  1  0
 13 14  1  0
 14 15  1  0
 15 16  1  0
 16 17  1  0
 16 18  1  0
 18 19  1  0
 11 20  1  0
 20 21  1  0
 20 22  1  0
  7 23  2  0
 23 24  1  0
 24  5  1  0
 20  9  1  0
 19 13  1  0
M  END
