
     RDKit          3D

 11 11  0  0  0  0  0  0  0  0999 V2000
   14.4466    4.1064   23.9982 O   0  0  0  0  0  0  0  0  0  0  0  0
   13.6007    3.7873   23.1852 C   0  0  0  0  0  0  0  0  0  0  0  0
   13.1867    4.6326   22.2265 O   0  0  0  0  0  0  0  0  0  0  0  0
   12.9209    2.4813   23.1195 C   0  0  0  0  0  0  0  0  0  0  0  0
   11.5502    2.4575   22.9149 C   0  0  0  0  0  0  0  0  0  0  0  0
   10.8226    1.3170   22.8375 N   0  0  0  0  0  0  0  0  0  0  0  0
   11.4875    0.1384   22.9695 C   0  0  0  0  0  0  0  0  0  0  0  0
   10.2526   -1.5609   22.8315 I   0  0  0  0  0  0  0  0  0  0  0  0
   12.8656    0.0660   23.1778 C   0  0  0  0  0  0  0  0  0  0  0  0
   13.8445   -1.5472   23.3689 Br  0  0  0  0  0  0  0  0  0  0  0  0
   13.5875    1.2618   23.2530 C   0  0  0  0  0  0  0  0  0  0  0  0
  1  2  2  0
  2  3  1  0
  2  4  1  0
  4  5  2  0
  5  6  1  0
  6  7  2  0
  7  8  1  0
  7  9  1  0
  9 10  1  0
  9 11  2  0
 11  4  1  0
M  END
