
     RDKit          3D

 24 28  0  0  0  0  0  0  0  0999 V2000
    6.4578   -1.8579   22.7891 C   0  0  0  0  0  0  0  0  0  0  0  0
    7.9120   -1.7560   23.2670 C   0  0  2  0  0  0  0  0  0  0  0  0
    8.8264   -2.3734   22.2019 C   0  0  0  0  0  0  0  0  0  0  0  0
   10.2316   -2.1529   22.7396 C   0  0  2  0  0  0  0  0  0  0  0  0
   10.3445   -2.8264   24.0845 C   0  0  0  0  0  0  0  0  0  0  0  0
   11.5771   -3.2839   24.5694 C   0  0  0  0  0  0  0  0  0  0  0  0
   11.6558   -3.8840   25.8266 C   0  0  0  0  0  0  0  0  0  0  0  0
   10.5087   -4.0250   26.6067 C   0  0  0  0  0  0  0  0  0  0  0  0
    9.2813   -3.5610   26.1333 C   0  0  0  0  0  0  0  0  0  0  0  0
    9.2017   -2.9556   24.8811 C   0  0  0  0  0  0  0  0  0  0  0  0
    7.9631   -2.5294   24.4849 O   0  0  0  0  0  0  0  0  0  0  0  0
   10.4424   -0.7292   22.8825 N   0  0  0  0  0  0  0  0  0  0  0  0
   11.6740   -0.1339   22.7850 C   0  0  0  0  0  0  0  0  0  0  0  0
   12.7240   -0.6961   22.5051 O   0  0  0  0  0  0  0  0  0  0  0  0
   11.5525    1.3273   23.0699 C   0  0  0  0  0  0  0  0  0  0  0  0
   12.6382    2.1103   23.0191 C   0  0  0  0  0  0  0  0  0  0  0  0
   12.6691    3.5119   23.2663 C   0  0  0  0  0  0  0  0  0  0  0  0
   11.5898    4.3536   23.5238 C   0  0  0  0  0  0  0  0  0  0  0  0
   12.0868    5.6652   23.7104 C   0  0  0  0  0  0  0  0  0  0  0  0
   13.4453    5.5709   23.5615 C   0  0  0  0  0  0  0  0  0  0  0  0
   13.8023    4.2922   23.2982 O   0  0  0  0  0  0  0  0  0  0  0  0
    9.9124    1.7139   23.4347 S   0  0  0  0  0  0  0  0  0  0  0  0
    9.3994    0.0644   23.2536 C   0  0  0  0  0  0  0  0  0  0  0  0
    8.1876   -0.3135   23.4247 N   0  0  0  0  0  0  0  0  0  0  0  0
  2  1  1  6
  2  3  1  0
  3  4  1  0
  4  5  1  1
  5  6  2  0
  6  7  1  0
  7  8  2  0
  8  9  1  0
  9 10  2  0
 10 11  1  0
  4 12  1  0
 12 13  1  0
 13 14  2  0
 13 15  1  0
 15 16  2  0
 16 17  1  0
 17 18  2  0
 18 19  1  0
 19 20  2  0
 20 21  1  0
 15 22  1  0
 22 23  1  0
 23 24  2  0
 11  2  1  0
 23 12  1  0
 24  2  1  0
 10  5  1  0
 21 17  1  0
M  END
