
     RDKit          3D

 25 27  0  0  0  0  0  0  0  0999 V2000
    4.5786    1.3772   19.9631 C   0  0  0  0  0  0  0  0  0  0  0  0
    5.7064    0.5629   20.5942 C   0  0  0  0  0  0  0  0  0  0  0  0
    5.4919    0.4239   22.1071 C   0  0  0  0  0  0  0  0  0  0  0  0
    6.6347   -0.3530   22.7693 C   0  0  0  0  0  0  0  0  0  0  0  0
    8.0085    0.2616   22.4642 C   0  0  0  0  0  0  0  0  0  0  0  0
    8.2141    0.4237   20.9472 C   0  0  0  0  0  0  0  0  0  0  0  0
    7.0691    1.1977   20.2871 C   0  0  0  0  0  0  0  0  0  0  0  0
    7.9815    1.6015   23.0295 O   0  0  0  0  0  0  0  0  0  0  0  0
    9.2775    1.8706   23.5844 C   0  0  0  0  0  0  0  0  0  0  0  0
    9.7701    0.5275   24.0551 C   0  0  1  0  0  0  0  0  0  0  0  0
    9.3716    0.3292   25.5169 C   0  0  0  0  0  0  0  0  0  0  0  0
   10.1537    0.1623   26.4429 O   0  0  0  0  0  0  0  0  0  0  0  0
    8.0446    0.3578   25.7643 O   0  0  0  0  0  0  0  0  0  0  0  0
    9.1342   -0.3943   23.1293 N   0  0  0  0  0  0  0  0  0  0  0  0
    9.6703   -1.6601   23.0201 C   0  0  0  0  0  0  0  0  0  0  0  0
    9.2175   -2.5145   22.2604 O   0  0  0  0  0  0  0  0  0  0  0  0
   10.8411   -2.0512   23.8154 C   0  0  0  0  0  0  0  0  0  0  0  0
   12.1208   -1.7398   23.3429 C   0  0  0  0  0  0  0  0  0  0  0  0
   13.2446   -2.1720   24.0512 C   0  0  0  0  0  0  0  0  0  0  0  0
   13.0750   -2.9397   25.2137 C   0  0  0  0  0  0  0  0  0  0  0  0
   14.2543   -3.3956   25.9619 N   0  0  0  0  0  0  0  0  0  0  0  0
   14.0618   -4.0337   27.0064 O   0  0  0  0  0  0  0  0  0  0  0  0
   15.3707   -3.1083   25.5079 O   0  0  0  0  0  0  0  0  0  0  0  0
   11.7911   -3.2867   25.6627 C   0  0  0  0  0  0  0  0  0  0  0  0
   10.6712   -2.8516   24.9494 C   0  0  0  0  0  0  0  0  0  0  0  0
  1  2  1  0
  2  3  1  0
  3  4  1  0
  4  5  1  0
  5  6  1  0
  6  7  1  0
  5  8  1  0
  8  9  1  0
  9 10  1  0
 10 11  1  1
 11 12  2  0
 11 13  1  0
 10 14  1  0
 14 15  1  0
 15 16  2  0
 15 17  1  0
 17 18  2  0
 18 19  1  0
 19 20  2  0
 20 21  1  0
 21 22  2  0
 21 23  1  0
 20 24  1  0
 24 25  2  0
  7  2  1  0
 25 17  1  0
 14  5  1  0
M  CHG  2  21   1  23  -1
M  END
