
     RDKit          3D

 24 26  0  0  0  0  0  0  0  0999 V2000
   13.4107   -0.0937   25.7832 C   0  0  0  0  0  0  0  0  0  0  0  0
   13.2557    0.2945   24.3776 N   0  0  0  0  0  0  0  0  0  0  0  0
   13.6282   -0.7375   23.4092 C   0  0  0  0  0  0  0  0  0  0  0  0
   12.1966    1.1635   24.0765 C   0  0  0  0  0  0  0  0  0  0  0  0
   12.2101    1.9420   22.9012 C   0  0  0  0  0  0  0  0  0  0  0  0
   11.1555    2.7979   22.5618 C   0  0  0  0  0  0  0  0  0  0  0  0
   10.0446    2.8769   23.3951 C   0  0  0  0  0  0  0  0  0  0  0  0
    8.9274    3.7742   23.0507 C   0  0  0  0  0  0  0  0  0  0  0  0
    8.0885    3.3554   22.2602 O   0  0  0  0  0  0  0  0  0  0  0  0
    8.8894    5.0152   23.6511 N   0  0  0  0  0  0  0  0  0  0  0  0
    9.8492    5.5489   24.6068 C   0  0  1  0  0  0  0  0  0  0  0  0
   11.1328    6.1158   24.0014 C   0  0  0  0  0  0  0  0  0  0  0  0
   11.5474    5.8731   22.8763 O   0  0  0  0  0  0  0  0  0  0  0  0
   11.8211    6.9584   24.7971 O   0  0  0  0  0  0  0  0  0  0  0  0
    9.0732    6.6820   25.2358 C   0  0  0  0  0  0  0  0  0  0  0  0
    8.2022    7.1472   24.1926 O   0  0  0  0  0  0  0  0  0  0  0  0
    7.8612    6.0030   23.3626 C   0  0  0  0  0  0  0  0  0  0  0  0
    7.8741    6.4894   21.9029 C   0  0  0  0  0  0  0  0  0  0  0  0
    6.7893    7.5337   21.6303 C   0  0  0  0  0  0  0  0  0  0  0  0
    5.4082    7.0315   22.0402 C   0  0  0  0  0  0  0  0  0  0  0  0
    5.3822    6.5818   23.4975 C   0  0  0  0  0  0  0  0  0  0  0  0
    6.4553    5.5290   23.7815 C   0  0  0  0  0  0  0  0  0  0  0  0
    9.9942    2.1362   24.5699 C   0  0  0  0  0  0  0  0  0  0  0  0
   11.0536    1.2789   24.8919 C   0  0  0  0  0  0  0  0  0  0  0  0
  1  2  1  0
  2  3  1  0
  2  4  1  0
  4  5  2  0
  5  6  1  0
  6  7  2  0
  7  8  1  0
  8  9  2  0
  8 10  1  0
 10 11  1  0
 11 12  1  6
 12 13  2  0
 12 14  1  0
 11 15  1  0
 15 16  1  0
 16 17  1  0
 17 18  1  0
 18 19  1  0
 19 20  1  0
 20 21  1  0
 21 22  1  0
  7 23  1  0
 23 24  2  0
 24  4  1  0
 17 10  1  0
 22 17  1  0
M  END
