
     RDKit          3D

 15 15  0  0  0  0  0  0  0  0999 V2000
   12.3958    2.8110   23.6654 C   0  0  0  0  0  0  0  0  0  0  0  0
   11.4968    1.5879   23.4550 C   0  0  0  0  0  0  0  0  0  0  0  0
   10.1557    1.9637   22.8156 C   0  0  0  0  0  0  0  0  0  0  0  0
   11.2252    0.9371   24.8197 C   0  0  0  0  0  0  0  0  0  0  0  0
   12.1765    0.5599   22.6854 O   0  0  0  0  0  0  0  0  0  0  0  0
   13.2921   -0.0552   23.1716 C   0  0  0  0  0  0  0  0  0  0  0  0
   14.1985    0.4963   23.7762 O   0  0  0  0  0  0  0  0  0  0  0  0
   13.2337   -1.5151   22.8201 C   0  0  0  0  0  0  0  0  0  0  0  0
   12.3970   -2.2605   23.7338 N   0  0  0  0  0  0  0  0  0  0  0  0
   11.1207   -2.5510   23.4060 N   0  0  0  0  0  0  0  0  0  0  0  0
   10.7404   -3.2838   24.4589 C   0  0  0  0  0  0  0  0  0  0  0  0
    9.0001   -3.9904   24.6190 Br  0  0  0  0  0  0  0  0  0  0  0  0
   11.7127   -3.5062   25.3942 N   0  0  0  0  0  0  0  0  0  0  0  0
   12.7461   -2.8545   24.9131 C   0  0  0  0  0  0  0  0  0  0  0  0
   14.4522   -2.8146   25.7603 Br  0  0  0  0  0  0  0  0  0  0  0  0
  1  2  1  0
  2  3  1  0
  2  4  1  0
  2  5  1  0
  5  6  1  0
  6  7  2  0
  6  8  1  0
  8  9  1  0
  9 10  1  0
 10 11  2  0
 11 12  1  0
 11 13  1  0
 13 14  2  0
 14 15  1  0
 14  9  1  0
M  END
