
     RDKit          3D

 26 28  0  0  0  0  0  0  0  0999 V2000
    4.3670    2.4632   21.2193 C   0  0  0  0  0  0  0  0  0  0  0  0
    5.0400    1.2054   20.6260 C   0  0  0  0  0  0  0  0  0  0  0  0
    6.1706    1.6653   19.6863 C   0  0  0  0  0  0  0  0  0  0  0  0
    3.9739    0.4794   19.7755 C   0  0  0  0  0  0  0  0  0  0  0  0
    5.5533    0.2637   21.7802 C   0  0  0  0  0  0  0  0  0  0  0  0
    5.8867   -1.1687   21.3067 C   0  0  0  0  0  0  0  0  0  0  0  0
    6.3083   -2.0786   22.4648 C   0  0  0  0  0  0  0  0  0  0  0  0
    7.4857   -1.4980   23.2635 C   0  0  0  0  0  0  0  0  0  0  0  0
    7.1846   -0.0642   23.7198 C   0  0  0  0  0  0  0  0  0  0  0  0
    6.7573    0.8397   22.5584 C   0  0  0  0  0  0  0  0  0  0  0  0
    8.6311   -1.4251   22.3720 O   0  0  0  0  0  0  0  0  0  0  0  0
    9.4820   -2.5425   22.6686 C   0  0  0  0  0  0  0  0  0  0  0  0
    9.2928   -2.7837   24.1470 C   0  0  1  0  0  0  0  0  0  0  0  0
   10.2665   -1.9295   24.9575 C   0  0  0  0  0  0  0  0  0  0  0  0
   10.6107   -0.7794   24.7338 O   0  0  0  0  0  0  0  0  0  0  0  0
   10.6943   -2.5456   26.0813 O   0  0  0  0  0  0  0  0  0  0  0  0
    7.9121   -2.3710   24.3466 N   0  0  0  0  0  0  0  0  0  0  0  0
    7.1029   -2.6801   25.4212 C   0  0  0  0  0  0  0  0  0  0  0  0
    5.9485   -2.2852   25.5546 O   0  0  0  0  0  0  0  0  0  0  0  0
    7.6515   -3.5117   26.5017 C   0  0  0  0  0  0  0  0  0  0  0  0
    7.6769   -3.0065   27.8045 C   0  0  0  0  0  0  0  0  0  0  0  0
    8.1659   -3.8027   28.8418 C   0  0  0  0  0  0  0  0  0  0  0  0
    8.6126   -5.1005   28.5783 C   0  0  0  0  0  0  0  0  0  0  0  0
    8.5684   -5.6063   27.2775 C   0  0  0  0  0  0  0  0  0  0  0  0
    8.0813   -4.8103   26.2447 C   0  0  0  0  0  0  0  0  0  0  0  0
    8.0551   -5.3076   24.9996 F   0  0  0  0  0  0  0  0  0  0  0  0
  1  2  1  0
  2  3  1  0
  2  4  1  0
  2  5  1  0
  5  6  1  0
  6  7  1  0
  7  8  1  0
  8  9  1  0
  9 10  1  0
  8 11  1  0
 11 12  1  0
 12 13  1  0
 13 14  1  1
 14 15  2  0
 14 16  1  0
 13 17  1  0
 17 18  1  0
 18 19  2  0
 18 20  1  0
 20 21  2  0
 21 22  1  0
 22 23  2  0
 23 24  1  0
 24 25  2  0
 25 26  1  0
 10  5  1  0
 25 20  1  0
 17  8  1  0
M  END
