
     RDKit          3D

 25 27  0  0  0  0  0  0  0  0999 V2000
   10.0163    9.1224   28.2437 C   0  0  0  0  0  0  0  0  0  0  0  0
    9.7692    7.8415   27.6805 O   0  0  0  0  0  0  0  0  0  0  0  0
   10.2146    7.6159   26.4036 C   0  0  0  0  0  0  0  0  0  0  0  0
   11.5036    7.9075   25.9427 C   0  0  0  0  0  0  0  0  0  0  0  0
   11.8613    7.6463   24.6155 C   0  0  0  0  0  0  0  0  0  0  0  0
   10.9391    7.0776   23.7395 C   0  0  0  0  0  0  0  0  0  0  0  0
    9.6557    6.7592   24.1940 C   0  0  0  0  0  0  0  0  0  0  0  0
    8.7030    6.1776   23.2246 C   0  0  0  0  0  0  0  0  0  0  0  0
    8.0512    6.9599   22.5352 O   0  0  0  0  0  0  0  0  0  0  0  0
    8.5720    4.7884   23.1483 N   0  0  0  0  0  0  0  0  0  0  0  0
    7.6479    4.1438   22.2115 C   0  0  0  0  0  0  0  0  0  0  0  0
    8.0974    2.7375   21.8281 C   0  0  0  0  0  0  0  0  0  0  0  0
    8.4045    1.9206   23.0887 C   0  0  1  0  0  0  0  0  0  0  0  0
    8.7296    0.5245   22.7483 N   0  0  0  0  0  0  0  0  0  0  0  0
    8.9013   -0.2775   23.9630 C   0  0  0  0  0  0  0  0  0  0  0  0
    9.9638    0.2958   24.9012 C   0  0  0  0  0  0  0  0  0  0  0  0
    9.6971    1.7661   25.2400 C   0  0  0  0  0  0  0  0  0  0  0  0
    9.4761    2.6115   23.9677 C   0  0  1  0  0  0  0  0  0  0  0  0
   10.8430    2.8142   23.3091 C   0  0  0  0  0  0  0  0  0  0  0  0
   11.0492    3.2923   22.2032 O   0  0  0  0  0  0  0  0  0  0  0  0
   11.9022    2.5076   24.0851 O   0  0  0  0  0  0  0  0  0  0  0  0
    8.9476    4.0129   24.3336 C   0  0  0  0  0  0  0  0  0  0  0  0
    9.2804    7.0612   25.5117 C   0  0  0  0  0  0  0  0  0  0  0  0
    8.0160    6.7612   25.9643 O   0  0  0  0  0  0  0  0  0  0  0  0
    7.1177    7.8254   25.6444 C   0  0  0  0  0  0  0  0  0  0  0  0
  1  2  1  0
  2  3  1  0
  3  4  2  0
  4  5  1  0
  5  6  2  0
  6  7  1  0
  7  8  1  0
  8  9  2  0
  8 10  1  0
 10 11  1  0
 11 12  1  0
 13 12  1  6
 13 14  1  0
 14 15  1  0
 15 16  1  0
 16 17  1  0
 17 18  1  0
 18 19  1  6
 19 20  2  0
 19 21  1  0
 18 22  1  0
  7 23  2  0
 23 24  1  0
 24 25  1  0
 23  3  1  0
 22 10  1  0
 18 13  1  0
M  END
