
     RDKit          3D

 26 29  0  0  0  0  0  0  0  0999 V2000
    5.3223    8.4322   27.4546 C   0  0  0  0  0  0  0  0  0  0  0  0
    4.4997    8.1410   26.2325 C   0  0  0  0  0  0  0  0  0  0  0  0
    4.3390    9.1958   25.3895 N   0  0  0  0  0  0  0  0  0  0  0  0
    3.6230    9.0544   24.2544 C   0  0  0  0  0  0  0  0  0  0  0  0
    3.4996   10.1423   23.3978 N   0  0  0  0  0  0  0  0  0  0  0  0
    4.6875   11.0038   23.2804 C   0  0  0  0  0  0  0  0  0  0  0  0
    4.3998   12.1255   22.2703 C   0  0  0  0  0  0  0  0  0  0  0  0
    3.3055   12.9789   22.6456 O   0  0  0  0  0  0  0  0  0  0  0  0
    2.3841   12.3524   23.5494 C   0  0  0  0  0  0  0  0  0  0  0  0
    2.2073   10.8432   23.3079 C   0  0  0  0  0  0  0  0  0  0  0  0
    3.0710    7.8208   23.9333 C   0  0  0  0  0  0  0  0  0  0  0  0
    3.2323    6.7364   24.7947 C   0  0  0  0  0  0  0  0  0  0  0  0
    3.9636    6.8746   25.9786 C   0  0  0  0  0  0  0  0  0  0  0  0
    4.1449    5.7203   26.9459 C   0  0  1  0  0  0  0  0  0  0  0  0
    2.8054    5.2546   27.5378 C   0  0  0  0  0  0  0  0  0  0  0  0
    2.3921    4.0894   26.6442 C   0  0  0  0  0  0  0  0  0  0  0  0
    3.7181    3.4280   26.3102 C   0  0  0  0  0  0  0  0  0  0  0  0
    4.6894    4.5077   26.3256 N   0  0  0  0  0  0  0  0  0  0  0  0
    6.0075    4.2607   25.9893 C   0  0  0  0  0  0  0  0  0  0  0  0
    6.8772    5.1261   25.9591 O   0  0  0  0  0  0  0  0  0  0  0  0
    6.3758    2.8807   25.6219 C   0  0  0  0  0  0  0  0  0  0  0  0
    6.4763    2.5231   24.2766 C   0  0  0  0  0  0  0  0  0  0  0  0
    6.8559    1.2240   23.9407 C   0  0  0  0  0  0  0  0  0  0  0  0
    7.1120    0.2878   24.9462 C   0  0  0  0  0  0  0  0  0  0  0  0
    6.9855    0.6447   26.2901 C   0  0  0  0  0  0  0  0  0  0  0  0
    6.6123    1.9442   26.6336 C   0  0  0  0  0  0  0  0  0  0  0  0
  1  2  1  0
  2  3  2  0
  3  4  1  0
  4  5  1  0
  5  6  1  0
  6  7  1  0
  7  8  1  0
  8  9  1  0
  9 10  1  0
  4 11  2  0
 11 12  1  0
 12 13  2  0
 14 13  1  6
 14 15  1  0
 15 16  1  0
 16 17  1  0
 17 18  1  0
 18 19  1  0
 19 20  2  0
 19 21  1  0
 21 22  2  0
 22 23  1  0
 23 24  2  0
 24 25  1  0
 25 26  2  0
 13  2  1  0
 18 14  1  0
 26 21  1  0
 10  5  1  0
M  END
