
     RDKit          3D

 29 31  0  0  0  0  0  0  0  0999 V2000
   12.3763    1.8661   24.2584 C   0  0  0  0  0  0  0  0  0  0  0  0
   12.3590    0.4867   23.6144 C   0  0  0  0  0  0  0  0  0  0  0  0
   11.6857   -0.5093   24.4642 N   0  0  0  0  0  0  0  0  0  0  0  0
   12.4089   -1.1930   25.4416 C   0  0  0  0  0  0  0  0  0  0  0  0
   13.5858   -1.0192   25.7283 O   0  0  0  0  0  0  0  0  0  0  0  0
   11.6405   -2.1238   26.0791 O   0  0  0  0  0  0  0  0  0  0  0  0
   11.8283   -3.5481   25.8719 C   0  0  0  0  0  0  0  0  0  0  0  0
   13.3439   -3.7600   26.0080 C   0  0  0  0  0  0  0  0  0  0  0  0
   11.1214   -4.3666   26.9555 C   0  0  0  0  0  0  0  0  0  0  0  0
   11.4027   -3.9708   24.4614 C   0  0  0  0  0  0  0  0  0  0  0  0
   10.3045   -0.7573   24.1686 C   0  0  0  0  0  0  0  0  0  0  0  0
    9.2544   -0.2633   24.9361 C   0  0  0  0  0  0  0  0  0  0  0  0
    7.9330   -0.5804   24.6036 C   0  0  0  0  0  0  0  0  0  0  0  0
    7.6579   -1.3943   23.5066 C   0  0  0  0  0  0  0  0  0  0  0  0
    6.2342   -1.7493   23.1504 C   0  0  1  0  0  0  0  0  0  0  0  0
    5.9052   -1.4268   21.6835 C   0  0  0  0  0  0  0  0  0  0  0  0
    6.1208   -2.7537   20.9594 C   0  0  0  0  0  0  0  0  0  0  0  0
    5.6446   -3.7771   21.9790 C   0  0  0  0  0  0  0  0  0  0  0  0
    5.9388   -3.1807   23.2709 N   0  0  0  0  0  0  0  0  0  0  0  0
    5.6609   -3.8803   24.4318 C   0  0  0  0  0  0  0  0  0  0  0  0
    5.1436   -4.9929   24.4523 O   0  0  0  0  0  0  0  0  0  0  0  0
    5.9762   -3.2353   25.7187 C   0  0  0  0  0  0  0  0  0  0  0  0
    5.1136   -2.2769   26.2527 C   0  0  0  0  0  0  0  0  0  0  0  0
    5.4189   -1.6869   27.4777 C   0  0  0  0  0  0  0  0  0  0  0  0
    6.5928   -2.0404   28.1511 C   0  0  0  0  0  0  0  0  0  0  0  0
    7.4667   -2.9798   27.6003 C   0  0  0  0  0  0  0  0  0  0  0  0
    7.1610   -3.5816   26.3794 C   0  0  0  0  0  0  0  0  0  0  0  0
    8.7548   -1.8379   22.7877 C   0  0  0  0  0  0  0  0  0  0  0  0
   10.0404   -1.5456   23.0975 N   0  0  0  0  0  0  0  0  0  0  0  0
  1  2  1  0
  2  3  1  0
  3  4  1  0
  4  5  2  0
  4  6  1  0
  6  7  1  0
  7  8  1  0
  7  9  1  0
  7 10  1  0
  3 11  1  0
 11 12  2  0
 12 13  1  0
 13 14  2  0
 15 14  1  6
 15 16  1  0
 16 17  1  0
 17 18  1  0
 18 19  1  0
 19 20  1  0
 20 21  2  0
 20 22  1  0
 22 23  2  0
 23 24  1  0
 24 25  2  0
 25 26  1  0
 26 27  2  0
 14 28  1  0
 28 29  2  0
 29 11  1  0
 19 15  1  0
 27 22  1  0
M  END
