
     RDKit          3D

 26 29  0  0  0  0  0  0  0  0999 V2000
    6.0571    0.0339   17.4164 C   0  0  0  0  0  0  0  0  0  0  0  0
    5.6284    0.4464   18.7080 O   0  0  0  0  0  0  0  0  0  0  0  0
    5.6001   -0.5075   19.6875 C   0  0  0  0  0  0  0  0  0  0  0  0
    5.2241   -0.0345   20.9462 C   0  0  0  0  0  0  0  0  0  0  0  0
    5.1568   -0.8999   22.0375 C   0  0  0  0  0  0  0  0  0  0  0  0
    5.4535   -2.2588   21.8696 C   0  0  0  0  0  0  0  0  0  0  0  0
    5.3879   -3.1411   23.0637 C   0  0  0  0  0  0  0  0  0  0  0  0
    4.4660   -3.9448   23.1606 O   0  0  0  0  0  0  0  0  0  0  0  0
    6.4277   -3.0316   24.0099 N   0  0  0  0  0  0  0  0  0  0  0  0
    6.3218   -3.9247   25.1766 C   0  0  0  0  0  0  0  0  0  0  0  0
    7.4011   -3.7002   26.2460 C   0  0  0  0  0  0  0  0  0  0  0  0
    8.7588   -3.6826   25.6746 N   0  0  0  0  0  0  0  0  0  0  0  0
    9.7656   -3.5324   26.7315 C   0  0  0  0  0  0  0  0  0  0  0  0
   10.4159   -4.8510   27.0281 C   0  0  0  0  0  0  0  0  0  0  0  0
   11.1021   -5.6086   25.9183 C   0  0  0  0  0  0  0  0  0  0  0  0
    9.8396   -6.1519   26.5239 C   0  0  0  0  0  0  0  0  0  0  0  0
    8.8641   -2.6853   24.5864 C   0  0  2  0  0  0  0  0  0  0  0  0
    8.7333   -1.2188   25.0137 C   0  0  0  0  0  0  0  0  0  0  0  0
    8.4701   -0.3321   23.5009 S   0  0  0  0  0  0  0  0  0  0  0  0
    7.3356    0.5505   23.6819 O   0  0  0  0  0  0  0  0  0  0  0  0
    9.7531    0.1545   23.0344 O   0  0  0  0  0  0  0  0  0  0  0  0
    7.9918   -1.7195   22.4992 C   0  0  0  0  0  0  0  0  0  0  0  0
    7.7963   -2.8994   23.4652 C   0  0  2  0  0  0  0  0  0  0  0  0
    5.8354   -2.7555   20.6110 C   0  0  0  0  0  0  0  0  0  0  0  0
    6.1940   -4.2007   20.4036 C   0  0  0  0  0  0  0  0  0  0  0  0
    5.9089   -1.8616   19.5257 C   0  0  0  0  0  0  0  0  0  0  0  0
  1  2  1  0
  2  3  1  0
  3  4  2  0
  4  5  1  0
  5  6  2  0
  6  7  1  0
  7  8  2  0
  7  9  1  0
  9 10  1  0
 10 11  1  0
 11 12  1  0
 12 13  1  0
 13 14  1  0
 14 15  1  0
 15 16  1  0
 12 17  1  0
 17 18  1  1
 18 19  1  0
 19 20  2  0
 19 21  2  0
 19 22  1  0
 23 22  1  6
  6 24  1  0
 24 25  1  0
 24 26  2  0
 26  3  1  0
 23  9  1  0
 16 14  1  0
 23 17  1  0
M  END
