
     RDKit          3D

 26 29  0  0  0  0  0  0  0  0999 V2000
   11.6568    3.8517   24.0223 C   0  0  0  0  0  0  0  0  0  0  0  0
   10.8939    4.2174   22.8709 O   0  0  0  0  0  0  0  0  0  0  0  0
    9.5613    3.9710   23.0850 C   0  0  0  0  0  0  0  0  0  0  0  0
    9.2011    2.6957   23.5165 C   0  0  0  0  0  0  0  0  0  0  0  0
    7.8509    2.3762   23.7201 C   0  0  0  0  0  0  0  0  0  0  0  0
    7.4642    0.9821   24.1832 C   0  0  2  0  0  0  0  0  0  0  0  0
    7.2049    0.0615   22.9981 C   0  0  0  0  0  0  0  0  0  0  0  0
    6.7959   -1.2999   23.4943 C   0  0  0  0  0  0  0  0  0  0  0  0
    7.0603   -2.3238   22.8690 O   0  0  0  0  0  0  0  0  0  0  0  0
    6.0019   -1.3647   24.7442 C   0  0  0  0  0  0  0  0  0  0  0  0
    5.4719   -2.5929   25.1621 C   0  0  0  0  0  0  0  0  0  0  0  0
    4.7109   -2.5932   26.3090 C   0  0  0  0  0  0  0  0  0  0  0  0
    4.4637   -1.4386   27.0126 C   0  0  0  0  0  0  0  0  0  0  0  0
    4.9728   -0.2174   26.6181 C   0  0  0  0  0  0  0  0  0  0  0  0
    5.7919   -0.1731   25.4810 C   0  0  0  0  0  0  0  0  0  0  0  0
    6.2727    1.0714   25.0317 N   0  0  0  0  0  0  0  0  0  0  0  0
    3.6749   -1.6535   28.0996 O   0  0  0  0  0  0  0  0  0  0  0  0
    3.4667   -3.0790   28.0092 C   0  0  0  0  0  0  0  0  0  0  0  0
    4.1101   -3.6782   26.8650 O   0  0  0  0  0  0  0  0  0  0  0  0
    6.8726    3.3612   23.4711 C   0  0  0  0  0  0  0  0  0  0  0  0
    7.2250    4.6383   23.0191 C   0  0  0  0  0  0  0  0  0  0  0  0
    6.3357    5.6457   22.7476 O   0  0  0  0  0  0  0  0  0  0  0  0
    5.8366    5.7371   21.4202 C   0  0  0  0  0  0  0  0  0  0  0  0
    8.5800    4.9272   22.8012 C   0  0  0  0  0  0  0  0  0  0  0  0
    8.9667    6.1709   22.3592 O   0  0  0  0  0  0  0  0  0  0  0  0
    9.3530    6.9792   23.4710 C   0  0  0  0  0  0  0  0  0  0  0  0
  1  2  1  0
  2  3  1  0
  3  4  2  0
  4  5  1  0
  6  5  1  6
  6  7  1  0
  7  8  1  0
  8  9  2  0
  8 10  1  0
 10 11  2  0
 11 12  1  0
 12 13  2  0
 13 14  1  0
 14 15  2  0
 15 16  1  0
 13 17  1  0
 17 18  1  0
 18 19  1  0
  5 20  2  0
 20 21  1  0
 21 22  1  0
 22 23  1  0
 21 24  2  0
 24 25  1  0
 25 26  1  0
 24  3  1  0
 16  6  1  0
 15 10  1  0
 19 12  1  0
M  END
