
     RDKit          3D

 23 25  0  0  0  0  0  0  0  0999 V2000
    4.7129   -1.9581   28.8430 C   0  0  0  0  0  0  0  0  0  0  0  0
    5.0457   -0.9406   27.9077 O   0  0  0  0  0  0  0  0  0  0  0  0
    6.0140   -0.0398   28.2657 C   0  0  0  0  0  0  0  0  0  0  0  0
    7.3652   -0.1587   27.9362 C   0  0  0  0  0  0  0  0  0  0  0  0
    8.2765    0.8317   28.3163 C   0  0  0  0  0  0  0  0  0  0  0  0
    7.8544    1.9608   29.0297 C   0  0  0  0  0  0  0  0  0  0  0  0
    8.8542    2.9680   29.4054 C   0  0  0  0  0  0  0  0  0  0  0  0
    8.5412    4.2092   29.8109 C   0  0  0  0  0  0  0  0  0  0  0  0
    9.6721    5.1557   30.1520 C   0  0  0  0  0  0  0  0  0  0  0  0
   10.8319    4.8283   29.9199 O   0  0  0  0  0  0  0  0  0  0  0  0
    9.2538    6.3355   30.7155 N   0  0  0  0  0  0  0  0  0  0  0  0
   10.1117    7.3252   31.0968 C   0  0  0  0  0  0  0  0  0  0  0  0
    9.8598    8.4871   31.6406 N   0  0  0  0  0  0  0  0  0  0  0  0
   11.0468    9.1613   31.8469 C   0  0  0  0  0  0  0  0  0  0  0  0
   12.1868    8.4915   31.4548 C   0  0  0  0  0  0  0  0  0  0  0  0
   11.7564    6.9639   30.8022 S   0  0  0  0  0  0  0  0  0  0  0  0
    6.9065    4.7623   29.9322 S   0  0  0  0  0  0  0  0  0  0  0  0
    6.0595    3.2420   30.1911 C   0  0  0  0  0  0  0  0  0  0  0  0
    5.1636    3.1819   31.0202 O   0  0  0  0  0  0  0  0  0  0  0  0
    6.5014    2.0759   29.3880 C   0  0  0  0  0  0  0  0  0  0  0  0
    5.5895    1.0724   29.0162 C   0  0  0  0  0  0  0  0  0  0  0  0
    4.2512    1.2402   29.2839 O   0  0  0  0  0  0  0  0  0  0  0  0
    3.5303    1.5648   28.0934 C   0  0  0  0  0  0  0  0  0  0  0  0
  1  2  1  0
  2  3  1  0
  3  4  2  0
  4  5  1  0
  5  6  2  0
  6  7  1  0
  7  8  2  0
  8  9  1  0
  9 10  2  0
  9 11  1  0
 11 12  1  0
 12 13  2  0
 13 14  1  0
 14 15  2  0
 15 16  1  0
  8 17  1  0
 17 18  1  0
 18 19  2  0
 18 20  1  0
 20 21  2  0
 21 22  1  0
 22 23  1  0
 21  3  1  0
 20  6  1  0
 16 12  1  0
M  END
