
     RDKit          3D

 24 26  0  0  0  0  0  0  0  0999 V2000
   15.0261   -2.8018   26.1096 C   0  0  0  0  0  0  0  0  0  0  0  0
   13.9103   -2.3184   25.2988 N   0  0  0  0  0  0  0  0  0  0  0  0
   12.9439   -1.5425   26.0862 C   0  0  0  0  0  0  0  0  0  0  0  0
   13.1397   -0.0318   25.9879 C   0  0  0  0  0  0  0  0  0  0  0  0
   13.0780    0.4742   24.5264 C   0  0  0  0  0  0  0  0  0  0  0  0
   11.8779    1.3067   24.2498 N   0  0  0  0  0  0  0  0  0  0  0  0
   10.6157    0.5273   24.2815 C   0  0  0  0  0  0  0  0  0  0  0  0
    9.3580    1.3964   24.0538 C   0  0  0  0  0  0  0  0  0  0  0  0
    9.4312    2.1101   22.7736 N   0  0  0  0  0  0  0  0  0  0  0  0
    8.2126    2.8569   22.4410 C   0  0  0  0  0  0  0  0  0  0  0  0
    6.9694    2.0338   22.0701 C   0  0  0  0  0  0  0  0  0  0  0  0
    7.2210    1.0362   20.9296 C   0  0  0  0  0  0  0  0  0  0  0  0
    6.0650    0.0635   20.6281 C   0  0  0  0  0  0  0  0  0  0  0  0
    4.8350    0.8098   20.1004 C   0  0  0  0  0  0  0  0  0  0  0  0
    5.0645    0.9569   18.5974 C   0  0  0  0  0  0  0  0  0  0  0  0
    6.0942   -0.1058   18.2171 C   0  0  0  0  0  0  0  0  0  0  0  0
    6.3439   -0.9130   19.4851 C   0  0  0  0  0  0  0  0  0  0  0  0
   10.6509    2.9308   22.7429 C   0  0  0  0  0  0  0  0  0  0  0  0
   11.9459    2.0817   22.9750 C   0  0  1  0  0  0  0  0  0  0  0  0
   13.1787    3.0070   22.8581 C   0  0  0  0  0  0  0  0  0  0  0  0
   13.1082    4.2844   23.6861 C   0  0  0  0  0  0  0  0  0  0  0  0
   14.4380    4.6930   23.9927 O   0  0  0  0  0  0  0  0  0  0  0  0
   13.3545   -0.6650   23.5235 C   0  0  0  0  0  0  0  0  0  0  0  0
   14.3964   -1.6240   24.0986 C   0  0  0  0  0  0  0  0  0  0  0  0
  1  2  1  0
  2  3  1  0
  3  4  1  0
  4  5  1  0
  5  6  1  0
  6  7  1  0
  7  8  1  0
  8  9  1  0
  9 10  1  0
 10 11  1  0
 11 12  1  0
 12 13  1  0
 13 14  1  0
 14 15  1  0
 15 16  1  0
 16 17  1  0
  9 18  1  0
 18 19  1  0
 19 20  1  1
 20 21  1  0
 21 22  1  0
  5 23  1  0
 23 24  1  0
 24  2  1  0
 19  6  1  0
 17 13  1  0
M  END
