
     RDKit          3D

 25 27  0  0  0  0  0  0  0  0999 V2000
    8.2636   -6.6869   29.6823 O   0  0  0  0  0  0  0  0  0  0  0  0
    8.8736   -5.5531   29.0666 C   0  0  0  0  0  0  0  0  0  0  0  0
    8.6647   -5.6075   27.5348 C   0  0  1  0  0  0  0  0  0  0  0  0
    7.1705   -5.5910   27.1822 C   0  0  0  0  0  0  0  0  0  0  0  0
    6.5092   -4.2446   27.4563 C   0  0  0  0  0  0  0  0  0  0  0  0
    7.4324   -3.0717   27.1391 C   0  0  0  0  0  0  0  0  0  0  0  0
    8.6113   -3.4853   26.2607 C   0  0  0  0  0  0  0  0  0  0  0  0
    9.4522   -4.5019   26.9162 N   0  0  0  0  0  0  0  0  0  0  0  0
   10.4792   -5.0324   25.9879 C   0  0  0  0  0  0  0  0  0  0  0  0
   11.7133   -4.1086   25.8473 C   0  0  0  0  0  0  0  0  0  0  0  0
   11.6438   -3.1852   24.7083 N   0  0  0  0  0  0  0  0  0  0  0  0
   12.8363   -2.3482   24.4988 C   0  0  0  0  0  0  0  0  0  0  0  0
   12.9549   -1.3866   25.6921 C   0  0  0  0  0  0  0  0  0  0  0  0
   14.1226   -0.4140   25.5059 C   0  0  0  0  0  0  0  0  0  0  0  0
   14.0671    0.3481   24.2473 N   0  0  0  0  0  0  0  0  0  0  0  0
   13.0094    1.3770   24.2816 C   0  0  0  0  0  0  0  0  0  0  0  0
   13.0273    2.3137   23.0607 C   0  0  0  0  0  0  0  0  0  0  0  0
   12.4302    3.6636   23.3872 C   0  0  0  0  0  0  0  0  0  0  0  0
   13.1816    4.8344   23.2146 C   0  0  0  0  0  0  0  0  0  0  0  0
   12.6221    6.0809   23.4982 C   0  0  0  0  0  0  0  0  0  0  0  0
   11.3089    6.1693   23.9558 C   0  0  0  0  0  0  0  0  0  0  0  0
   10.5523    5.0114   24.1260 C   0  0  0  0  0  0  0  0  0  0  0  0
   11.1081    3.7633   23.8400 C   0  0  0  0  0  0  0  0  0  0  0  0
   13.9745   -0.5697   23.1050 C   0  0  0  0  0  0  0  0  0  0  0  0
   12.8030   -1.5533   23.1851 C   0  0  0  0  0  0  0  0  0  0  0  0
  1  2  1  0
  3  2  1  1
  3  4  1  0
  4  5  1  0
  5  6  1  0
  6  7  1  0
  7  8  1  0
  8  9  1  0
  9 10  1  0
 10 11  1  0
 11 12  1  0
 12 13  1  0
 13 14  1  0
 14 15  1  0
 15 16  1  0
 16 17  1  0
 17 18  1  0
 18 19  2  0
 19 20  1  0
 20 21  2  0
 21 22  1  0
 22 23  2  0
 15 24  1  0
 24 25  1  0
  8  3  1  0
 25 12  1  0
 23 18  1  0
M  END
