
     RDKit          3D

 32 35  0  0  0  0  0  0  0  0999 V2000
    0.7374   -8.0328   26.6184 C   0  0  0  0  0  0  0  0  0  0  0  0
    2.0845   -8.1192   26.1777 O   0  0  0  0  0  0  0  0  0  0  0  0
    2.7405   -6.9490   25.8957 C   0  0  0  0  0  0  0  0  0  0  0  0
    2.9021   -5.8860   26.7886 C   0  0  0  0  0  0  0  0  0  0  0  0
    3.6018   -4.7358   26.3954 C   0  0  0  0  0  0  0  0  0  0  0  0
    3.8106   -3.5702   27.3033 C   0  0  0  0  0  0  0  0  0  0  0  0
    4.7255   -3.5914   28.1209 O   0  0  0  0  0  0  0  0  0  0  0  0
    2.9432   -2.5020   27.1876 N   0  0  0  0  0  0  0  0  0  0  0  0
    3.0707   -1.3259   28.0291 C   0  0  0  0  0  0  0  0  0  0  0  0
    3.8037   -0.1602   27.3493 C   0  0  0  0  0  0  0  0  0  0  0  0
    2.9207    0.9980   27.0148 C   0  0  0  0  0  0  0  0  0  0  0  0
    3.1022    2.2940   27.3387 C   0  0  0  0  0  0  0  0  0  0  0  0
    1.8269    3.3556   26.7180 S   0  0  0  0  0  0  0  0  0  0  0  0
    1.0654    1.9673   26.0205 C   0  0  0  0  0  0  0  0  0  0  0  0
   -0.0039    1.7479   25.3144 N   0  0  0  0  0  0  0  0  0  0  0  0
    0.0438    0.3716   25.1699 C   0  0  0  0  0  0  0  0  0  0  0  0
   -0.9695   -0.3463   24.4046 C   0  0  0  0  0  0  0  0  0  0  0  0
   -1.1727    0.0334   23.0672 C   0  0  0  0  0  0  0  0  0  0  0  0
   -2.1002   -0.6341   22.2678 C   0  0  0  0  0  0  0  0  0  0  0  0
   -2.8430   -1.6834   22.7989 C   0  0  0  0  0  0  0  0  0  0  0  0
   -2.6620   -2.0645   24.1292 C   0  0  0  0  0  0  0  0  0  0  0  0
   -1.7329   -1.4009   24.9501 C   0  0  0  0  0  0  0  0  0  0  0  0
   -1.5744   -1.8567   26.3754 C   0  0  0  0  0  0  0  0  0  0  0  0
    1.1056   -0.2316   25.7477 N   0  0  0  0  0  0  0  0  0  0  0  0
    1.7573    0.8216   26.2805 N   0  0  0  0  0  0  0  0  0  0  0  0
    4.1096   -4.6340   25.0899 C   0  0  0  0  0  0  0  0  0  0  0  0
    3.9419   -5.6773   24.1797 C   0  0  0  0  0  0  0  0  0  0  0  0
    4.4028   -5.6692   22.8887 O   0  0  0  0  0  0  0  0  0  0  0  0
    5.8079   -5.5529   22.7031 C   0  0  0  0  0  0  0  0  0  0  0  0
    3.2771   -6.8405   24.6004 C   0  0  0  0  0  0  0  0  0  0  0  0
    3.0733   -7.8621   23.6982 O   0  0  0  0  0  0  0  0  0  0  0  0
    1.9062   -7.5983   22.9229 C   0  0  0  0  0  0  0  0  0  0  0  0
  1  2  1  0
  2  3  1  0
  3  4  2  0
  4  5  1  0
  5  6  1  0
  6  7  2  0
  6  8  1  0
  8  9  1  0
  9 10  1  0
 10 11  1  0
 11 12  2  0
 12 13  1  0
 13 14  1  0
 14 15  2  0
 15 16  1  0
 16 17  1  0
 17 18  2  0
 18 19  1  0
 19 20  2  0
 20 21  1  0
 21 22  2  0
 22 23  1  0
 16 24  2  0
 24 25  1  0
  5 26  2  0
 26 27  1  0
 27 28  1  0
 28 29  1  0
 27 30  2  0
 30 31  1  0
 31 32  1  0
 30  3  1  0
 25 11  1  0
 25 14  1  0
 22 17  1  0
M  END
