
     RDKit          3D

 27 29  0  0  0  0  0  0  0  0999 V2000
   11.4556    0.0119   26.0338 C   0  0  0  0  0  0  0  0  0  0  0  0
   12.0504    0.9876   25.1886 O   0  0  0  0  0  0  0  0  0  0  0  0
   11.2948    1.4731   24.1528 C   0  0  0  0  0  0  0  0  0  0  0  0
   10.0570    0.9590   23.7592 C   0  0  0  0  0  0  0  0  0  0  0  0
    9.3515    1.5238   22.6821 C   0  0  0  0  0  0  0  0  0  0  0  0
    8.0593    0.9963   22.2603 C   0  0  0  0  0  0  0  0  0  0  0  0
    7.6675   -0.2483   22.0693 N   0  0  0  0  0  0  0  0  0  0  0  0
    6.3459   -0.1837   21.6728 N   0  0  0  0  0  0  0  0  0  0  0  0
    6.0277    1.0919   21.6509 C   0  0  0  0  0  0  0  0  0  0  0  0
    4.8134    1.6116   21.3130 N   0  0  0  0  0  0  0  0  0  0  0  0
    4.4754    2.9295   21.5030 C   0  0  0  0  0  0  0  0  0  0  0  0
    5.2238    3.7698   21.9920 O   0  0  0  0  0  0  0  0  0  0  0  0
    3.1282    3.2622   21.0700 C   0  0  0  0  0  0  0  0  0  0  0  0
    2.0501    2.4607   20.7228 C   0  0  0  0  0  0  0  0  0  0  0  0
    0.9993    3.3410   20.3860 C   0  0  0  0  0  0  0  0  0  0  0  0
   -0.3756    3.0072   19.9438 C   0  0  0  0  0  0  0  0  0  0  0  0
    1.3753    4.6143   20.5082 N   0  0  0  0  0  0  0  0  0  0  0  0
    2.6566    4.5490   20.9193 N   0  0  0  0  0  0  0  0  0  0  0  0
    3.3713    5.7854   21.1494 C   0  0  0  0  0  0  0  0  0  0  0  0
    7.0624    1.9003   22.0119 O   0  0  0  0  0  0  0  0  0  0  0  0
    9.9040    2.6211   21.9991 C   0  0  0  0  0  0  0  0  0  0  0  0
   11.1398    3.1516   22.3755 C   0  0  0  0  0  0  0  0  0  0  0  0
   11.7523    4.2171   21.7683 O   0  0  0  0  0  0  0  0  0  0  0  0
   13.0474    4.0056   21.2226 C   0  0  0  0  0  0  0  0  0  0  0  0
   11.8354    2.5575   23.4416 C   0  0  0  0  0  0  0  0  0  0  0  0
   13.0351    3.0995   23.8487 O   0  0  0  0  0  0  0  0  0  0  0  0
   12.8232    4.4144   24.3594 C   0  0  0  0  0  0  0  0  0  0  0  0
  1  2  1  0
  2  3  1  0
  3  4  2  0
  4  5  1  0
  5  6  1  0
  6  7  2  0
  7  8  1  0
  8  9  2  0
  9 10  1  0
 10 11  1  0
 11 12  2  0
 11 13  1  0
 13 14  2  0
 14 15  1  0
 15 16  1  0
 15 17  2  0
 17 18  1  0
 18 19  1  0
  9 20  1  0
  5 21  2  0
 21 22  1  0
 22 23  1  0
 23 24  1  0
 22 25  2  0
 25 26  1  0
 26 27  1  0
 25  3  1  0
 20  6  1  0
 18 13  1  0
M  END
