
     RDKit          3D

 25 26  0  0  0  0  0  0  0  0999 V2000
   11.6929    8.1192   25.1021 C   0  0  0  0  0  0  0  0  0  0  0  0
   11.5479    6.7070   24.6190 C   0  0  0  0  0  0  0  0  0  0  0  0
   12.3974    6.2031   23.6324 C   0  0  0  0  0  0  0  0  0  0  0  0
   12.2609    4.8892   23.1499 C   0  0  0  0  0  0  0  0  0  0  0  0
   13.2234    4.4242   22.0889 C   0  0  0  0  0  0  0  0  0  0  0  0
   11.2327    4.0558   23.6585 C   0  0  0  0  0  0  0  0  0  0  0  0
   11.0666    2.6233   23.1606 C   0  0  0  0  0  0  0  0  0  0  0  0
   12.1052    1.7125   23.6553 N   0  0  0  0  0  0  0  0  0  0  0  0
   12.5341    0.7232   22.6680 C   0  0  0  0  0  0  0  0  0  0  0  0
   13.3756   -0.2203   23.5239 C   0  0  2  0  0  0  0  0  0  0  0  0
   13.6095   -1.5579   22.8362 C   0  0  0  0  0  0  0  0  0  0  0  0
   14.0948   -1.3643   21.5144 O   0  0  0  0  0  0  0  0  0  0  0  0
   12.6765   -0.2126   24.9092 C   0  0  2  0  0  0  0  0  0  0  0  0
   12.0392   -1.5364   25.3716 C   0  0  0  0  0  0  0  0  0  0  0  0
   12.9914   -2.6688   25.4625 N   0  0  0  0  0  0  0  0  0  0  0  0
   14.1822   -2.2344   26.2039 C   0  0  0  0  0  0  0  0  0  0  0  0
   12.3658   -3.8500   26.1041 C   0  0  0  0  0  0  0  0  0  0  0  0
   11.1289   -4.4061   25.3471 C   0  0  0  0  0  0  0  0  0  0  0  0
   10.4340   -5.5635   25.9433 N   0  0  0  0  0  0  0  0  0  0  0  0
    9.9253   -5.2878   27.2832 C   0  0  0  0  0  0  0  0  0  0  0  0
    9.3818   -6.0919   25.0797 C   0  0  0  0  0  0  0  0  0  0  0  0
   11.6344    0.9119   24.7912 C   0  0  0  0  0  0  0  0  0  0  0  0
   10.3509    4.5791   24.6392 C   0  0  0  0  0  0  0  0  0  0  0  0
    9.2410    3.7549   25.2403 C   0  0  0  0  0  0  0  0  0  0  0  0
   10.5249    5.8930   25.1073 C   0  0  0  0  0  0  0  0  0  0  0  0
  1  2  1  0
  2  3  2  0
  3  4  1  0
  4  5  1  0
  4  6  2  0
  6  7  1  0
  7  8  1  0
  8  9  1  0
  9 10  1  0
 10 11  1  6
 11 12  1  0
 10 13  1  0
 13 14  1  6
 14 15  1  0
 15 16  1  0
 15 17  1  0
 17 18  1  0
 18 19  1  0
 19 20  1  0
 19 21  1  0
 13 22  1  0
  6 23  1  0
 23 24  1  0
 23 25  2  0
 25  2  1  0
 22  8  1  0
M  END
