
     RDKit          3D

 25 27  0  0  0  0  0  0  0  0999 V2000
    3.6559    2.7894   18.9987 N   0  0  0  0  0  0  0  0  0  0  0  0
    4.0040    1.3742   19.1318 C   0  0  0  0  0  0  0  0  0  0  0  0
    4.9940    1.1503   20.2778 C   0  0  0  0  0  0  0  0  0  0  0  0
    5.3503   -0.3091   20.4276 C   0  0  0  0  0  0  0  0  0  0  0  0
    5.3959   -1.1482   19.3087 C   0  0  0  0  0  0  0  0  0  0  0  0
    5.7432   -2.4901   19.4488 C   0  0  0  0  0  0  0  0  0  0  0  0
    6.0577   -3.0055   20.7063 C   0  0  0  0  0  0  0  0  0  0  0  0
    6.0340   -2.1827   21.8381 C   0  0  0  0  0  0  0  0  0  0  0  0
    6.3639   -2.7471   23.2053 C   0  0  0  0  0  0  0  0  0  0  0  0
    7.7683   -3.1467   23.3470 N   0  0  0  0  0  0  0  0  0  0  0  0
    7.9650   -4.1995   24.3540 C   0  0  0  0  0  0  0  0  0  0  0  0
    9.4439   -4.0835   24.7771 C   0  0  2  0  0  0  0  0  0  0  0  0
    9.5896   -4.2187   26.2934 C   0  0  0  0  0  0  0  0  0  0  0  0
   10.7600   -4.9471   26.6460 O   0  0  0  0  0  0  0  0  0  0  0  0
    9.9112   -2.7611   24.1299 C   0  0  2  0  0  0  0  0  0  0  0  0
   10.9025   -1.8714   24.8911 C   0  0  0  0  0  0  0  0  0  0  0  0
   12.3054   -2.2938   24.7911 N   0  0  0  0  0  0  0  0  0  0  0  0
   12.8999   -2.2483   23.4557 C   0  0  0  0  0  0  0  0  0  0  0  0
   13.0560   -0.8769   22.8002 C   0  0  0  0  0  0  0  0  0  0  0  0
   13.9391    0.0993   23.5729 C   0  0  0  0  0  0  0  0  0  0  0  0
   13.2350    0.7052   24.7791 C   0  0  0  0  0  0  0  0  0  0  0  0
   13.1194   -0.1842   26.0142 C   0  0  0  0  0  0  0  0  0  0  0  0
   13.1684   -1.7017   25.8142 C   0  0  0  0  0  0  0  0  0  0  0  0
    8.6048   -2.0371   23.8154 C   0  0  0  0  0  0  0  0  0  0  0  0
    5.6687   -0.8362   21.6872 C   0  0  0  0  0  0  0  0  0  0  0  0
  1  2  1  0
  2  3  1  0
  3  4  1  0
  4  5  2  0
  5  6  1  0
  6  7  2  0
  7  8  1  0
  8  9  1  0
  9 10  1  0
 10 11  1  0
 11 12  1  0
 12 13  1  1
 13 14  1  0
 12 15  1  0
 15 16  1  1
 16 17  1  0
 17 18  1  0
 18 19  1  0
 19 20  1  0
 20 21  1  0
 21 22  1  0
 22 23  1  0
 15 24  1  0
  8 25  2  0
 25  4  1  0
 24 10  1  0
 23 17  1  0
M  END
