
     RDKit          3D

 24 26  0  0  0  0  0  0  0  0999 V2000
   12.1549    0.1021   26.1189 C   0  0  0  0  0  0  0  0  0  0  0  0
   11.5216   -0.4504   24.8985 C   0  0  0  0  0  0  0  0  0  0  0  0
   11.9299   -1.6218   24.3918 N   0  0  0  0  0  0  0  0  0  0  0  0
   11.1776   -1.8178   23.2493 O   0  0  0  0  0  0  0  0  0  0  0  0
   10.3231   -0.7729   23.0804 C   0  0  0  0  0  0  0  0  0  0  0  0
    9.5061   -0.8013   21.8524 C   0  0  0  0  0  0  0  0  0  0  0  0
   10.4653    0.1072   24.1329 C   0  0  0  0  0  0  0  0  0  0  0  0
    9.7658    1.3529   24.3497 C   0  0  0  0  0  0  0  0  0  0  0  0
   10.3748    2.3758   24.6529 O   0  0  0  0  0  0  0  0  0  0  0  0
    8.3857    1.3276   24.2471 N   0  0  0  0  0  0  0  0  0  0  0  0
    7.5304    0.1478   24.1973 C   0  0  0  0  0  0  0  0  0  0  0  0
    6.1528    0.6260   24.6914 C   0  0  1  0  0  0  0  0  0  0  0  0
    5.8807    0.4563   26.1802 C   0  0  0  0  0  0  0  0  0  0  0  0
    4.5514    0.5565   26.6303 C   0  0  0  0  0  0  0  0  0  0  0  0
    4.2420    0.4300   27.9862 C   0  0  0  0  0  0  0  0  0  0  0  0
    5.2597    0.2096   28.9022 C   0  0  0  0  0  0  0  0  0  0  0  0
    4.9646    0.0934   30.2042 F   0  0  0  0  0  0  0  0  0  0  0  0
    6.5803    0.1150   28.4867 C   0  0  0  0  0  0  0  0  0  0  0  0
    6.8918    0.2395   27.1297 C   0  0  0  0  0  0  0  0  0  0  0  0
    6.1466    2.1138   24.2940 C   0  0  2  0  0  0  0  0  0  0  0  0
    5.6774    2.2726   22.8690 C   0  0  0  0  0  0  0  0  0  0  0  0
    6.3419    2.1827   21.8498 O   0  0  0  0  0  0  0  0  0  0  0  0
    4.3570    2.5475   22.7962 O   0  0  0  0  0  0  0  0  0  0  0  0
    7.6047    2.5378   24.4505 C   0  0  0  0  0  0  0  0  0  0  0  0
  1  2  1  0
  2  3  2  0
  3  4  1  0
  4  5  1  0
  5  6  1  0
  5  7  2  0
  7  8  1  0
  8  9  2  0
  8 10  1  0
 10 11  1  0
 11 12  1  0
 12 13  1  1
 13 14  2  0
 14 15  1  0
 15 16  2  0
 16 17  1  0
 16 18  1  0
 18 19  2  0
 12 20  1  0
 20 21  1  6
 21 22  2  0
 21 23  1  0
 20 24  1  0
  7  2  1  0
 24 10  1  0
 19 13  1  0
M  END
