
     RDKit          3D

 24 26  0  0  0  0  0  0  0  0999 V2000
   14.0605   -2.0420   23.8440 C   0  0  0  0  0  0  0  0  0  0  0  0
   13.0541   -1.3961   24.6112 O   0  0  0  0  0  0  0  0  0  0  0  0
   11.7489   -1.6992   24.3197 C   0  0  0  0  0  0  0  0  0  0  0  0
   11.0208   -2.7382   24.9020 C   0  0  0  0  0  0  0  0  0  0  0  0
    9.6822   -2.9721   24.5399 C   0  0  0  0  0  0  0  0  0  0  0  0
    8.9102   -4.1108   25.1776 C   0  0  0  0  0  0  0  0  0  0  0  0
    7.5095   -3.7681   25.4674 N   0  0  0  0  0  0  0  0  0  0  0  0
    6.6485   -4.9401   25.6927 C   0  0  0  0  0  0  0  0  0  0  0  0
    6.8849   -5.6424   27.0326 C   0  0  0  0  0  0  0  0  0  0  0  0
    6.7738   -4.6669   28.2017 C   0  0  0  0  0  0  0  0  0  0  0  0
    7.6714   -3.4418   27.9805 C   0  0  2  0  0  0  0  0  0  0  0  0
    7.4586   -2.4212   29.0684 C   0  0  0  0  0  0  0  0  0  0  0  0
    8.1359   -2.3828   30.1978 N   0  0  0  0  0  0  0  0  0  0  0  0
    7.6976   -1.3274   30.9717 C   0  0  0  0  0  0  0  0  0  0  0  0
    6.6872   -0.5684   30.4243 C   0  0  0  0  0  0  0  0  0  0  0  0
    6.2654   -1.1919   28.8861 S   0  0  0  0  0  0  0  0  0  0  0  0
    7.3940   -2.8214   26.5958 C   0  0  0  0  0  0  0  0  0  0  0  0
    9.0756   -2.1555   23.5710 C   0  0  0  0  0  0  0  0  0  0  0  0
    9.7864   -1.1125   22.9724 C   0  0  0  0  0  0  0  0  0  0  0  0
    9.2796   -0.2633   22.0222 O   0  0  0  0  0  0  0  0  0  0  0  0
    8.4653   -0.8293   21.0056 C   0  0  0  0  0  0  0  0  0  0  0  0
   11.1159   -0.8825   23.3675 C   0  0  0  0  0  0  0  0  0  0  0  0
   11.8347    0.1211   22.7529 O   0  0  0  0  0  0  0  0  0  0  0  0
   11.5884    1.3613   23.4128 C   0  0  0  0  0  0  0  0  0  0  0  0
  1  2  1  0
  2  3  1  0
  3  4  2  0
  4  5  1  0
  5  6  1  0
  6  7  1  0
  7  8  1  0
  8  9  1  0
  9 10  1  0
 10 11  1  0
 11 12  1  1
 12 13  2  0
 13 14  1  0
 14 15  2  0
 15 16  1  0
 11 17  1  0
  5 18  2  0
 18 19  1  0
 19 20  1  0
 20 21  1  0
 19 22  2  0
 22 23  1  0
 23 24  1  0
 22  3  1  0
 17  7  1  0
 16 12  1  0
M  END
