
     RDKit          3D

 25 28  0  0  0  0  0  0  0  0999 V2000
   11.2696   -1.7646   23.8458 O   0  0  0  0  0  0  0  0  0  0  0  0
   10.8172   -0.7429   24.3530 C   0  0  0  0  0  0  0  0  0  0  0  0
   11.3876    0.5584   23.9293 C   0  0  0  0  0  0  0  0  0  0  0  0
   10.6386    1.3800   23.0898 C   0  0  0  0  0  0  0  0  0  0  0  0
   11.2029    2.5766   22.6926 C   0  0  0  0  0  0  0  0  0  0  0  0
   12.4365    2.9833   23.0659 N   0  0  0  0  0  0  0  0  0  0  0  0
   13.1502    2.1486   23.8525 C   0  0  0  0  0  0  0  0  0  0  0  0
   12.6775    0.9317   24.3056 C   0  0  0  0  0  0  0  0  0  0  0  0
    9.8147   -0.7337   25.3321 N   0  0  0  0  0  0  0  0  0  0  0  0
    9.3941    0.5758   25.8760 C   0  0  0  0  0  0  0  0  0  0  0  0
    8.3822    0.4612   27.0315 C   0  0  0  0  0  0  0  0  0  0  0  0
    7.2920   -0.4236   26.7079 O   0  0  0  0  0  0  0  0  0  0  0  0
    7.8398   -1.7107   26.4074 C   0  0  1  0  0  0  0  0  0  0  0  0
    6.8089   -2.7851   26.0613 C   0  0  2  0  0  0  0  0  0  0  0  0
    6.2653   -3.4629   27.1946 O   0  0  0  0  0  0  0  0  0  0  0  0
    4.8374   -3.4703   27.2411 C   0  0  0  0  0  0  0  0  0  0  0  0
    4.2843   -4.8099   26.8441 C   0  0  0  0  0  0  0  0  0  0  0  0
    3.3439   -4.9323   25.8173 C   0  0  0  0  0  0  0  0  0  0  0  0
    2.8725   -6.1912   25.4563 C   0  0  0  0  0  0  0  0  0  0  0  0
    3.3650   -7.2944   26.1325 C   0  0  0  0  0  0  0  0  0  0  0  0
    4.2781   -7.2204   27.1231 N   0  0  0  0  0  0  0  0  0  0  0  0
    4.7213   -5.9835   27.4498 C   0  0  0  0  0  0  0  0  0  0  0  0
    7.6183   -3.7951   25.2255 C   0  0  0  0  0  0  0  0  0  0  0  0
    8.9465   -3.1083   24.8709 C   0  0  0  0  0  0  0  0  0  0  0  0
    8.6761   -1.6290   25.1262 C   0  0  2  0  0  0  0  0  0  0  0  0
  1  2  2  0
  2  3  1  0
  3  4  2  0
  4  5  1  0
  5  6  2  0
  6  7  1  0
  7  8  2  0
  2  9  1  0
  9 10  1  0
 10 11  1  0
 11 12  1  0
 13 12  1  6
 13 14  1  0
 14 15  1  1
 15 16  1  0
 16 17  1  0
 17 18  2  0
 18 19  1  0
 19 20  2  0
 20 21  1  0
 21 22  2  0
 14 23  1  0
 23 24  1  0
 25 24  1  1
  8  3  1  0
 25  9  1  0
 25 13  1  0
 22 17  1  0
M  END
