
     RDKit          3D

 25 28  0  0  0  0  0  0  0  0999 V2000
    6.9981    0.4522   28.8994 O   0  0  0  0  0  0  0  0  0  0  0  0
    6.6198   -0.0213   27.8322 C   0  0  0  0  0  0  0  0  0  0  0  0
    5.1991   -0.4291   27.7191 C   0  0  0  0  0  0  0  0  0  0  0  0
    4.7424   -1.4959   28.4899 C   0  0  0  0  0  0  0  0  0  0  0  0
    3.4204   -1.8706   28.3473 C   0  0  0  0  0  0  0  0  0  0  0  0
    2.5581   -1.2668   27.4996 N   0  0  0  0  0  0  0  0  0  0  0  0
    3.0408   -0.2575   26.7428 C   0  0  0  0  0  0  0  0  0  0  0  0
    4.3452    0.1942   26.8099 C   0  0  0  0  0  0  0  0  0  0  0  0
    7.4561   -0.2300   26.7272 N   0  0  0  0  0  0  0  0  0  0  0  0
    8.8730    0.1780   26.8432 C   0  0  0  0  0  0  0  0  0  0  0  0
    9.6559    0.0392   25.5247 C   0  0  0  0  0  0  0  0  0  0  0  0
    9.4672   -1.2518   24.9171 O   0  0  0  0  0  0  0  0  0  0  0  0
    8.0691   -1.4421   24.6833 C   0  0  1  0  0  0  0  0  0  0  0  0
    7.6970   -2.7770   24.0369 C   0  0  2  0  0  0  0  0  0  0  0  0
    7.8757   -2.6731   22.6235 O   0  0  0  0  0  0  0  0  0  0  0  0
    7.5796   -1.4314   22.0979 C   0  0  0  0  0  0  0  0  0  0  0  0
    6.2965   -0.9963   22.0855 N   0  0  0  0  0  0  0  0  0  0  0  0
    6.0800    0.2355   21.5707 C   0  0  0  0  0  0  0  0  0  0  0  0
    7.0832    1.0555   21.0731 C   0  0  0  0  0  0  0  0  0  0  0  0
    8.3935    0.5878   21.1040 C   0  0  0  0  0  0  0  0  0  0  0  0
    8.6448   -0.6739   21.6261 C   0  0  0  0  0  0  0  0  0  0  0  0
    9.9034   -1.1339   21.6669 F   0  0  0  0  0  0  0  0  0  0  0  0
    6.2112   -2.9387   24.4193 C   0  0  0  0  0  0  0  0  0  0  0  0
    5.9282   -1.9181   25.5333 C   0  0  0  0  0  0  0  0  0  0  0  0
    7.3143   -1.5008   26.0149 C   0  0  2  0  0  0  0  0  0  0  0  0
  1  2  2  0
  2  3  1  0
  3  4  2  0
  4  5  1  0
  5  6  2  0
  6  7  1  0
  7  8  2  0
  2  9  1  0
  9 10  1  0
 10 11  1  0
 11 12  1  0
 13 12  1  1
 13 14  1  0
 14 15  1  6
 15 16  1  0
 16 17  2  0
 17 18  1  0
 18 19  2  0
 19 20  1  0
 20 21  2  0
 21 22  1  0
 14 23  1  0
 23 24  1  0
 25 24  1  6
  8  3  1  0
 25  9  1  0
 25 13  1  0
 21 16  1  0
M  END
