
     RDKit          3D

 24 26  0  0  0  0  0  0  0  0999 V2000
    5.1377    0.3128   18.2389 C   0  0  0  0  0  0  0  0  0  0  0  0
    4.7839    1.1662   19.4403 C   0  0  0  0  0  0  0  0  0  0  0  0
    5.9412    1.2864   20.2635 O   0  0  0  0  0  0  0  0  0  0  0  0
    5.6080    1.2505   21.6500 C   0  0  0  0  0  0  0  0  0  0  0  0
    6.8517    1.5387   22.4880 C   0  0  2  0  0  0  0  0  0  0  0  0
    6.9714    2.9916   22.9223 C   0  0  0  0  0  0  0  0  0  0  0  0
    8.4749    3.1789   23.1323 C   0  0  2  0  0  0  0  0  0  0  0  0
    9.0097    2.2636   22.0078 C   0  0  0  0  0  0  0  0  0  0  0  0
    8.0387    1.2383   21.7416 O   0  0  0  0  0  0  0  0  0  0  0  0
    8.9432    2.6524   24.5148 C   0  0  0  0  0  0  0  0  0  0  0  0
   10.3763    2.7621   24.6520 O   0  0  0  0  0  0  0  0  0  0  0  0
   10.8118    4.1230   24.5132 C   0  0  0  0  0  0  0  0  0  0  0  0
   10.4102    4.6946   23.1440 C   0  0  0  0  0  0  0  0  0  0  0  0
    8.9517    4.5836   22.9599 N   0  0  0  0  0  0  0  0  0  0  0  0
    8.1926    5.6180   23.5358 C   0  0  0  0  0  0  0  0  0  0  0  0
    8.6798    6.5473   24.1712 O   0  0  0  0  0  0  0  0  0  0  0  0
    6.7128    5.5550   23.3796 C   0  0  0  0  0  0  0  0  0  0  0  0
    5.8794    5.2748   24.4687 C   0  0  0  0  0  0  0  0  0  0  0  0
    4.4939    5.2357   24.2955 C   0  0  0  0  0  0  0  0  0  0  0  0
    3.9277    5.4833   23.0372 C   0  0  0  0  0  0  0  0  0  0  0  0
    2.4307    5.4623   22.8562 C   0  0  0  0  0  0  0  0  0  0  0  0
    1.9989    4.4252   21.8309 C   0  0  0  0  0  0  0  0  0  0  0  0
    4.7677    5.7897   21.9577 C   0  0  0  0  0  0  0  0  0  0  0  0
    6.1532    5.8297   22.1280 C   0  0  0  0  0  0  0  0  0  0  0  0
  1  2  1  0
  2  3  1  0
  3  4  1  0
  5  4  1  6
  5  6  1  0
  7  6  1  1
  7  8  1  0
  8  9  1  0
  7 10  1  0
 10 11  1  0
 11 12  1  0
 12 13  1  0
 13 14  1  0
 14 15  1  0
 15 16  2  0
 15 17  1  0
 17 18  2  0
 18 19  1  0
 19 20  2  0
 20 21  1  0
 21 22  1  0
 20 23  1  0
 23 24  2  0
  9  5  1  0
 24 17  1  0
 14  7  1  0
M  END
