
     RDKit          3D

 35 39  0  0  0  0  0  0  0  0999 V2000
    9.7581    4.3324   27.1049 C   0  0  0  0  0  0  0  0  0  0  0  0
   10.1502    5.1010   25.9768 O   0  0  0  0  0  0  0  0  0  0  0  0
    9.8136    4.6276   24.7347 C   0  0  0  0  0  0  0  0  0  0  0  0
    8.5407    4.7081   24.1639 C   0  0  0  0  0  0  0  0  0  0  0  0
    8.2942    4.1963   22.8811 C   0  0  0  0  0  0  0  0  0  0  0  0
    6.9765    4.3082   22.3930 N   0  0  0  0  0  0  0  0  0  0  0  0
    6.2768    3.4074   21.6085 C   0  0  0  0  0  0  0  0  0  0  0  0
    6.6773    2.3206   21.2015 O   0  0  0  0  0  0  0  0  0  0  0  0
    4.8583    3.8871   21.2795 C   0  0  2  0  0  0  0  0  0  0  0  0
    4.5543    5.2082   21.8136 O   0  0  0  0  0  0  0  0  0  0  0  0
    3.1854    5.1181   21.9951 C   0  0  0  0  0  0  0  0  0  0  0  0
    2.4013    6.2783   22.2374 C   0  0  0  0  0  0  0  0  0  0  0  0
    1.0823    6.1021   22.4123 C   0  0  0  0  0  0  0  0  0  0  0  0
    0.1102    7.2033   22.6806 C   0  0  0  0  0  0  0  0  0  0  0  0
    0.4932    4.8004   22.3491 O   0  0  0  0  0  0  0  0  0  0  0  0
    1.2434    3.6716   22.1141 C   0  0  0  0  0  0  0  0  0  0  0  0
    0.7544    2.5541   22.0180 O   0  0  0  0  0  0  0  0  0  0  0  0
    2.6733    3.8971   21.9646 C   0  0  0  0  0  0  0  0  0  0  0  0
    3.7488    2.9052   21.7508 C   0  0  2  0  0  0  0  0  0  0  0  0
    4.0727    2.0905   22.9953 C   0  0  0  0  0  0  0  0  0  0  0  0
    4.8264    0.8992   22.8560 C   0  0  0  0  0  0  0  0  0  0  0  0
    5.1989    0.1391   23.9703 C   0  0  0  0  0  0  0  0  0  0  0  0
    4.8124    0.5887   25.2121 C   0  0  0  0  0  0  0  0  0  0  0  0
    4.0758    1.7372   25.3647 C   0  0  0  0  0  0  0  0  0  0  0  0
    3.6864    2.5030   24.2854 C   0  0  0  0  0  0  0  0  0  0  0  0
    3.8017    2.0109   26.6685 O   0  0  0  0  0  0  0  0  0  0  0  0
    4.4735    0.9115   27.3203 C   0  0  0  0  0  0  0  0  0  0  0  0
    5.0951   -0.0091   26.3995 O   0  0  0  0  0  0  0  0  0  0  0  0
    9.3332    3.5882   22.1702 C   0  0  0  0  0  0  0  0  0  0  0  0
   10.6134    3.4879   22.7244 C   0  0  0  0  0  0  0  0  0  0  0  0
   11.6889    2.9032   22.1055 O   0  0  0  0  0  0  0  0  0  0  0  0
   12.5900    3.7630   21.4175 C   0  0  0  0  0  0  0  0  0  0  0  0
   10.8479    4.0304   23.9979 C   0  0  0  0  0  0  0  0  0  0  0  0
   12.0941    3.9048   24.5722 O   0  0  0  0  0  0  0  0  0  0  0  0
   12.4755    2.5306   24.6021 C   0  0  0  0  0  0  0  0  0  0  0  0
  1  2  1  0
  2  3  1  0
  3  4  2  0
  4  5  1  0
  5  6  1  0
  6  7  1  0
  7  8  2  0
  9  7  1  1
  9 10  1  0
 10 11  1  0
 11 12  1  0
 12 13  2  0
 13 14  1  0
 13 15  1  0
 15 16  1  0
 16 17  2  0
 16 18  1  0
 18 19  1  0
 19 20  1  1
 20 21  2  0
 21 22  1  0
 22 23  2  0
 23 24  1  0
 24 25  2  0
 24 26  1  0
 26 27  1  0
 27 28  1  0
  5 29  2  0
 29 30  1  0
 30 31  1  0
 31 32  1  0
 30 33  2  0
 33 34  1  0
 34 35  1  0
 33  3  1  0
 19  9  1  0
 25 20  1  0
 18 11  2  0
 28 23  1  0
M  END
