
     RDKit          3D

 24 27  0  0  0  0  0  0  0  0999 V2000
    9.3606   -5.2745   29.1220 C   0  0  0  0  0  0  0  0  0  0  0  0
    8.8535   -5.4637   27.7676 N   0  0  0  0  0  0  0  0  0  0  0  0
    7.4032   -5.2603   27.7116 C   0  0  0  0  0  0  0  0  0  0  0  0
    7.1255   -5.1294   26.2250 C   0  0  0  0  0  0  0  0  0  0  0  0
    8.4333   -4.6356   25.6175 C   0  0  0  0  0  0  0  0  0  0  0  0
    9.4118   -4.5125   26.7911 C   0  0  2  0  0  0  0  0  0  0  0  0
   10.8630   -4.8315   26.3954 C   0  0  0  0  0  0  0  0  0  0  0  0
   11.3555   -3.9275   25.2526 C   0  0  0  0  0  0  0  0  0  0  0  0
   12.2050   -2.7889   25.6209 N   0  0  0  0  0  0  0  0  0  0  0  0
   11.5241   -1.4891   25.5192 C   0  0  0  0  0  0  0  0  0  0  0  0
   12.4308   -0.3267   25.9957 C   0  0  0  0  0  0  0  0  0  0  0  0
   13.7664   -0.2531   25.3497 N   0  0  0  0  0  0  0  0  0  0  0  0
   13.6699    0.2013   23.9473 C   0  0  0  0  0  0  0  0  0  0  0  0
   13.0510    1.5600   23.8345 C   0  0  0  0  0  0  0  0  0  0  0  0
   11.7709    1.8498   23.7090 N   0  0  0  0  0  0  0  0  0  0  0  0
   11.7106    3.2213   23.6407 C   0  0  0  0  0  0  0  0  0  0  0  0
   10.5982    4.0646   23.5075 C   0  0  0  0  0  0  0  0  0  0  0  0
   10.8056    5.4496   23.4662 C   0  0  0  0  0  0  0  0  0  0  0  0
   12.0939    5.9833   23.5562 C   0  0  0  0  0  0  0  0  0  0  0  0
   13.2167    5.1573   23.6893 C   0  0  0  0  0  0  0  0  0  0  0  0
   12.9804    3.7818   23.7254 C   0  0  0  0  0  0  0  0  0  0  0  0
   13.8143    2.7028   23.8449 N   0  0  0  0  0  0  0  0  0  0  0  0
   14.3871   -1.5959   25.4229 C   0  0  0  0  0  0  0  0  0  0  0  0
   13.4975   -2.7609   24.9242 C   0  0  0  0  0  0  0  0  0  0  0  0
  1  2  1  0
  2  3  1  0
  3  4  1  0
  4  5  1  0
  5  6  1  0
  6  7  1  6
  7  8  1  0
  8  9  1  0
  9 10  1  0
 10 11  1  0
 11 12  1  0
 12 13  1  0
 13 14  1  0
 14 15  2  0
 15 16  1  0
 16 17  2  0
 17 18  1  0
 18 19  2  0
 19 20  1  0
 20 21  2  0
 21 22  1  0
 12 23  1  0
 23 24  1  0
  6  2  1  0
 24  9  1  0
 22 14  1  0
 21 16  1  0
M  END
