
     RDKit          3D

 13 12  0  0  0  0  0  0  0  0999 V2000
    9.6178    1.4073   26.4847 C   0  0  0  0  0  0  0  0  0  0  0  0
   10.0687    0.6025   25.2555 C   0  0  0  0  0  0  0  0  0  0  0  0
    9.7958    1.3570   23.9501 C   0  0  0  0  0  0  0  0  0  0  0  0
    9.1587   -0.6591   25.2097 C   0  0  0  0  0  0  0  0  0  0  0  0
   11.5418    0.1121   25.4027 C   0  0  0  0  0  0  0  0  0  0  0  0
   11.9964    0.0113   26.5580 O   0  0  0  0  0  0  0  0  0  0  0  0
   12.4514   -0.2904   24.2444 C   0  0  0  0  0  0  0  0  0  0  0  0
   11.5503   -1.0769   22.6928 Br  0  0  0  0  0  0  0  0  0  0  0  0
   13.2677    1.4201   23.5822 Br  0  0  0  0  0  0  0  0  0  0  0  0
   13.7308   -1.4089   24.8707 S   0  0  0  0  0  0  0  0  0  0  0  0
   12.8975   -2.7986   25.6106 C   0  0  0  0  0  0  0  0  0  0  0  0
   14.4824   -1.9335   23.7421 O   0  0  0  0  0  0  0  0  0  0  0  0
   14.4510   -0.7440   25.9454 O   0  0  0  0  0  0  0  0  0  0  0  0
  1  2  1  0
  2  3  1  0
  2  4  1  0
  2  5  1  0
  5  6  2  0
  5  7  1  0
  7  8  1  0
  7  9  1  0
  7 10  1  0
 10 11  1  0
 10 12  2  0
 10 13  2  0
M  END
