
     RDKit          3D

 32 34  0  0  0  0  0  0  0  0999 V2000
    5.9860    0.3289   18.2841 C   0  0  0  0  0  0  0  0  0  0  0  0
    5.9749   -1.1415   18.6618 C   0  0  0  0  0  0  0  0  0  0  0  0
    5.5424   -1.2434   20.0162 O   0  0  0  0  0  0  0  0  0  0  0  0
    6.4605   -1.6749   20.9321 C   0  0  0  0  0  0  0  0  0  0  0  0
    7.6736   -0.9870   20.9147 C   0  0  0  0  0  0  0  0  0  0  0  0
    8.7010   -1.3329   21.7968 C   0  0  0  0  0  0  0  0  0  0  0  0
    8.5336   -2.3755   22.7131 C   0  0  0  0  0  0  0  0  0  0  0  0
    9.6224   -2.6763   23.5545 N   0  0  0  0  0  0  0  0  0  0  0  0
    9.8067   -3.8074   24.3297 C   0  0  0  0  0  0  0  0  0  0  0  0
    9.0285   -4.7519   24.4391 O   0  0  0  0  0  0  0  0  0  0  0  0
   11.1165   -3.7906   25.1201 C   0  0  0  0  0  0  0  0  0  0  0  0
   11.8349   -2.5704   24.9139 O   0  0  0  0  0  0  0  0  0  0  0  0
   13.1704   -2.6423   25.1567 C   0  0  0  0  0  0  0  0  0  0  0  0
   13.6971   -3.2677   26.0647 O   0  0  0  0  0  0  0  0  0  0  0  0
   13.9332   -1.8113   24.1534 C   0  0  0  0  0  0  0  0  0  0  0  0
   13.6515   -0.3059   24.3086 C   0  0  2  0  0  0  0  0  0  0  0  0
   12.9214   -0.0216   25.6251 C   0  0  0  0  0  0  0  0  0  0  0  0
   12.8241    0.2371   23.1278 C   0  0  0  0  0  0  0  0  0  0  0  0
   12.6014    1.7449   23.2360 C   0  0  0  0  0  0  0  0  0  0  0  0
   13.6602    2.4766   23.1766 N   0  0  0  0  0  0  0  0  0  0  0  0
   13.5502    4.0864   23.1701 S   0  0  0  0  0  0  0  0  0  0  0  0
   13.8668    4.5333   21.8267 O   0  0  0  0  0  0  0  0  0  0  0  0
   14.2898    4.6007   24.3058 O   0  0  0  0  0  0  0  0  0  0  0  0
   11.8680    4.5194   23.4429 C   0  0  0  0  0  0  0  0  0  0  0  0
   11.5174    5.8664   23.5805 C   0  0  0  0  0  0  0  0  0  0  0  0
   10.1832    6.2010   23.7920 C   0  0  0  0  0  0  0  0  0  0  0  0
    9.2211    5.1940   23.8607 C   0  0  0  0  0  0  0  0  0  0  0  0
    9.5919    3.8509   23.7210 C   0  0  0  0  0  0  0  0  0  0  0  0
   10.9305    3.4965   23.5179 C   0  0  0  0  0  0  0  0  0  0  0  0
   11.3004    2.1586   23.3704 N   0  0  0  0  0  0  0  0  0  0  0  0
    7.3168   -3.0576   22.7322 C   0  0  0  0  0  0  0  0  0  0  0  0
    6.2848   -2.7091   21.8480 C   0  0  0  0  0  0  0  0  0  0  0  0
  1  2  1  0
  2  3  1  0
  3  4  1  0
  4  5  2  0
  5  6  1  0
  6  7  2  0
  7  8  1  0
  8  9  1  0
  9 10  2  0
  9 11  1  0
 11 12  1  0
 12 13  1  0
 13 14  2  0
 13 15  1  0
 15 16  1  0
 16 17  1  1
 16 18  1  0
 18 19  1  0
 19 20  2  0
 20 21  1  0
 21 22  2  0
 21 23  2  0
 21 24  1  0
 24 25  2  0
 25 26  1  0
 26 27  2  0
 27 28  1  0
 28 29  2  0
 29 30  1  0
  7 31  1  0
 31 32  2  0
 32  4  1  0
 30 19  1  0
 29 24  1  0
M  END
