
     RDKit          3D

 31 33  0  0  0  0  0  0  0  0999 V2000
   14.3336   -3.2332   25.8784 C   0  0  0  0  0  0  0  0  0  0  0  0
   13.4117   -2.1535   25.8848 O   0  0  0  0  0  0  0  0  0  0  0  0
   12.3396   -2.2309   25.0293 C   0  0  0  0  0  0  0  0  0  0  0  0
   11.0915   -2.7603   25.3766 C   0  0  0  0  0  0  0  0  0  0  0  0
   10.0374   -2.7956   24.4487 C   0  0  0  0  0  0  0  0  0  0  0  0
    8.6992   -3.3796   24.8507 C   0  0  0  0  0  0  0  0  0  0  0  0
    8.6758   -4.8402   24.6573 N   0  0  0  0  0  0  0  0  0  0  0  0
    9.3131   -5.5414   25.7969 C   0  0  0  0  0  0  0  0  0  0  0  0
    8.4136   -5.5371   27.0623 C   0  0  0  0  0  0  0  0  0  0  0  0
    9.0420   -5.9138   28.3409 N   0  0  0  0  0  0  0  0  0  0  0  0
   10.0205   -4.9329   28.8010 C   0  0  0  0  0  0  0  0  0  0  0  0
    8.0617   -6.2052   29.3835 C   0  0  0  0  0  0  0  0  0  0  0  0
    7.2893   -5.3063   24.4707 C   0  0  0  0  0  0  0  0  0  0  0  0
    6.8342   -5.0471   23.0820 C   0  0  0  0  0  0  0  0  0  0  0  0
    6.4268   -5.8748   22.0610 C   0  0  0  0  0  0  0  0  0  0  0  0
    6.0862   -5.1481   20.9496 N   0  0  0  0  0  0  0  0  0  0  0  0
    6.2743   -3.8853   21.2763 C   0  0  0  0  0  0  0  0  0  0  0  0
    6.0538   -2.6986   20.4189 C   0  0  0  0  0  0  0  0  0  0  0  0
    6.7263   -3.7795   22.5664 N   0  0  0  0  0  0  0  0  0  0  0  0
   10.2506   -2.2949   23.1621 C   0  0  0  0  0  0  0  0  0  0  0  0
   11.4945   -1.7682   22.8046 C   0  0  0  0  0  0  0  0  0  0  0  0
   12.5440   -1.7298   23.7285 C   0  0  0  0  0  0  0  0  0  0  0  0
   13.7904   -1.2152   23.4737 O   0  0  0  0  0  0  0  0  0  0  0  0
   13.9534    0.2007   23.3691 C   0  0  0  0  0  0  0  0  0  0  0  0
   13.3737    0.9123   24.6035 C   0  0  0  0  0  0  0  0  0  0  0  0
   12.8272    2.2552   24.3149 N   0  0  0  0  0  0  0  0  0  0  0  0
   11.6183    2.1783   23.4759 C   0  0  0  0  0  0  0  0  0  0  0  0
   11.0395    3.5683   23.2019 C   0  0  0  0  0  0  0  0  0  0  0  0
   12.0751    4.4892   22.5682 C   0  0  0  0  0  0  0  0  0  0  0  0
   13.3523    4.5002   23.3982 C   0  0  0  0  0  0  0  0  0  0  0  0
   13.8578    3.0807   23.6598 C   0  0  0  0  0  0  0  0  0  0  0  0
  1  2  1  0
  2  3  1  0
  3  4  2  0
  4  5  1  0
  5  6  1  0
  6  7  1  0
  7  8  1  0
  8  9  1  0
  9 10  1  0
 10 11  1  0
 10 12  1  0
  7 13  1  0
 13 14  1  0
 14 15  2  0
 15 16  1  0
 16 17  2  0
 17 18  1  0
 17 19  1  0
  5 20  2  0
 20 21  1  0
 21 22  2  0
 22 23  1  0
 23 24  1  0
 24 25  1  0
 25 26  1  0
 26 27  1  0
 27 28  1  0
 28 29  1  0
 29 30  1  0
 30 31  1  0
 22  3  1  0
 31 26  1  0
 19 14  1  0
M  END
