
     RDKit          3D

 31 32  0  0  0  0  0  0  0  0999 V2000
    2.7491    5.0717   14.4375 C   0  0  0  0  0  0  0  0  0  0  0  0
    1.7290    5.1911   15.5680 C   0  0  0  0  0  0  0  0  0  0  0  0
    2.2108    6.0403   16.6771 N   0  0  0  0  0  0  0  0  0  0  0  0
    2.2336    7.4618   16.2746 C   0  0  0  0  0  0  0  0  0  0  0  0
    0.8302    8.0439   16.1261 C   0  0  0  0  0  0  0  0  0  0  0  0
    1.3751    5.8488   17.8871 C   0  0  0  0  0  0  0  0  0  0  0  0
    1.5987    4.4719   18.5699 C   0  0  0  0  0  0  0  0  0  0  0  0
    2.7264    4.3635   19.5184 N   0  0  0  0  0  0  0  0  0  0  0  0
    2.7654    5.4822   20.4587 C   0  0  0  0  0  0  0  0  0  0  0  0
    2.7451    3.0625   20.2066 C   0  0  0  0  0  0  0  0  0  0  0  0
    4.1454    2.5298   20.4321 C   0  0  0  0  0  0  0  0  0  0  0  0
    4.8889    2.9271   21.5540 C   0  0  0  0  0  0  0  0  0  0  0  0
    6.1939    2.4601   21.7589 C   0  0  0  0  0  0  0  0  0  0  0  0
    6.7772    1.5829   20.8465 C   0  0  0  0  0  0  0  0  0  0  0  0
    8.0369    1.0580   20.9462 O   0  0  0  0  0  0  0  0  0  0  0  0
    8.1714   -0.2777   21.4356 C   0  0  0  0  0  0  0  0  0  0  0  0
    9.2983   -0.3439   22.4808 C   0  0  1  0  0  0  0  0  0  0  0  0
    8.7477   -0.2459   23.8056 O   0  0  0  0  0  0  0  0  0  0  0  0
   10.1336   -1.6429   22.3846 C   0  0  0  0  0  0  0  0  0  0  0  0
   11.2240   -1.6589   23.4012 N   0  0  0  0  0  0  0  0  0  0  0  0
   11.2506   -2.9736   24.0736 C   0  0  0  0  0  0  0  0  0  0  0  0
   12.0022   -3.0242   25.4157 C   0  0  0  0  0  0  0  0  0  0  0  0
   13.5192   -2.8488   25.3456 C   0  0  0  0  0  0  0  0  0  0  0  0
   14.0321   -1.4382   25.6401 C   0  0  0  0  0  0  0  0  0  0  0  0
   13.2653   -0.2610   25.0451 C   0  0  0  0  0  0  0  0  0  0  0  0
   13.2267   -0.1876   23.5200 C   0  0  0  0  0  0  0  0  0  0  0  0
   12.5266   -1.3371   22.7914 C   0  0  0  0  0  0  0  0  0  0  0  0
    6.0252    1.1736   19.7344 C   0  0  0  0  0  0  0  0  0  0  0  0
    6.5672    0.3292   18.7934 O   0  0  0  0  0  0  0  0  0  0  0  0
    5.6268    0.1201   17.7379 C   0  0  0  0  0  0  0  0  0  0  0  0
    4.7328    1.6543   19.5129 C   0  0  0  0  0  0  0  0  0  0  0  0
  1  2  1  0
  2  3  1  0
  3  4  1  0
  4  5  1  0
  3  6  1  0
  6  7  1  0
  7  8  1  0
  8  9  1  0
  8 10  1  0
 10 11  1  0
 11 12  2  0
 12 13  1  0
 13 14  2  0
 14 15  1  0
 15 16  1  0
 16 17  1  0
 17 18  1  1
 17 19  1  0
 19 20  1  0
 20 21  1  0
 21 22  1  0
 22 23  1  0
 23 24  1  0
 24 25  1  0
 25 26  1  0
 26 27  1  0
 14 28  1  0
 28 29  1  0
 29 30  1  0
 28 31  2  0
 31 11  1  0
 27 20  1  0
M  END
