
     RDKit          3D

 31 32  0  0  0  0  0  0  0  0999 V2000
   10.2137    3.5924   23.5161 C   0  0  0  0  0  0  0  0  0  0  0  0
   11.3377    2.8397   22.8133 C   0  0  0  0  0  0  0  0  0  0  0  0
   12.5788    2.8331   23.5919 N   0  0  0  0  0  0  0  0  0  0  0  0
   13.5580    3.8261   23.1335 C   0  0  0  0  0  0  0  0  0  0  0  0
   13.2232    5.2902   23.3896 C   0  0  0  0  0  0  0  0  0  0  0  0
   13.1623    1.5078   23.8745 C   0  0  0  0  0  0  0  0  0  0  0  0
   12.3646    0.5339   24.7843 C   0  0  0  0  0  0  0  0  0  0  0  0
   12.6128   -0.8911   24.4865 N   0  0  0  0  0  0  0  0  0  0  0  0
   14.0102   -1.2814   24.7145 C   0  0  0  0  0  0  0  0  0  0  0  0
   14.1394   -2.5223   25.5935 C   0  0  0  0  0  0  0  0  0  0  0  0
   12.1145   -1.3290   23.1675 C   0  0  0  0  0  0  0  0  0  0  0  0
   10.6695   -1.7821   23.0946 C   0  0  0  0  0  0  0  0  0  0  0  0
   10.1011   -2.5624   24.1136 C   0  0  0  0  0  0  0  0  0  0  0  0
    8.7719   -3.0021   24.0366 C   0  0  0  0  0  0  0  0  0  0  0  0
    7.9813   -2.6600   22.9402 C   0  0  0  0  0  0  0  0  0  0  0  0
    6.6695   -3.0227   22.7643 O   0  0  0  0  0  0  0  0  0  0  0  0
    6.3331   -4.3691   23.0773 C   0  0  0  0  0  0  0  0  0  0  0  0
    8.5371   -1.8502   21.9427 C   0  0  0  0  0  0  0  0  0  0  0  0
    7.7793   -1.5167   20.8483 O   0  0  0  0  0  0  0  0  0  0  0  0
    7.2715   -0.1739   20.9638 C   0  0  0  0  0  0  0  0  0  0  0  0
    6.8268    0.2684   19.5646 C   0  0  1  0  0  0  0  0  0  0  0  0
    7.2366   -0.6933   18.5797 O   0  0  0  0  0  0  0  0  0  0  0  0
    5.3057    0.5268   19.4756 C   0  0  0  0  0  0  0  0  0  0  0  0
    4.8784    1.9415   19.5358 N   0  0  0  0  0  0  0  0  0  0  0  0
    3.4098    2.0391   19.4057 C   0  0  0  0  0  0  0  0  0  0  0  0
    2.8979    3.4938   19.5270 C   0  0  0  0  0  0  0  0  0  0  0  0
    3.3148    4.1984   20.7545 N   0  0  0  0  0  0  0  0  0  0  0  0
    2.5876    3.7178   21.9273 C   0  0  0  0  0  0  0  0  0  0  0  0
    4.7737    4.0450   20.9194 C   0  0  0  0  0  0  0  0  0  0  0  0
    5.3089    2.5965   20.7898 C   0  0  0  0  0  0  0  0  0  0  0  0
    9.8643   -1.4204   22.0088 C   0  0  0  0  0  0  0  0  0  0  0  0
  1  2  1  0
  2  3  1  0
  3  4  1  0
  4  5  1  0
  3  6  1  0
  6  7  1  0
  7  8  1  0
  8  9  1  0
  9 10  1  0
  8 11  1  0
 11 12  1  0
 12 13  2  0
 13 14  1  0
 14 15  2  0
 15 16  1  0
 16 17  1  0
 15 18  1  0
 18 19  1  0
 19 20  1  0
 20 21  1  0
 21 22  1  6
 21 23  1  0
 23 24  1  0
 24 25  1  0
 25 26  1  0
 26 27  1  0
 27 28  1  0
 27 29  1  0
 29 30  1  0
 18 31  2  0
 31 12  1  0
 30 24  1  0
M  END
