
     RDKit          3D

 34 37  0  0  0  0  0  0  0  0999 V2000
    4.2713    3.3784   21.1466 C   0  0  0  0  0  0  0  0  0  0  0  0
    4.9363    2.1675   21.4842 O   0  0  0  0  0  0  0  0  0  0  0  0
    5.1801    1.2788   20.4690 C   0  0  0  0  0  0  0  0  0  0  0  0
    4.8413    1.4904   19.1275 C   0  0  0  0  0  0  0  0  0  0  0  0
    5.1514    0.5338   18.1567 C   0  0  0  0  0  0  0  0  0  0  0  0
    5.8080   -0.6387   18.5152 C   0  0  0  0  0  0  0  0  0  0  0  0
    6.1487   -0.8600   19.8475 C   0  0  0  0  0  0  0  0  0  0  0  0
    5.8287    0.0854   20.8380 C   0  0  0  0  0  0  0  0  0  0  0  0
    6.2305   -0.1915   22.2665 C   0  0  0  0  0  0  0  0  0  0  0  0
    7.2625   -1.2002   22.3285 N   0  0  0  0  0  0  0  0  0  0  0  0
    8.5607   -0.9411   21.9621 C   0  0  0  0  0  0  0  0  0  0  0  0
    8.9587    0.1550   21.5783 O   0  0  0  0  0  0  0  0  0  0  0  0
    9.4910   -2.1295   22.0991 C   0  0  0  0  0  0  0  0  0  0  0  0
   10.8374   -1.7387   22.7117 C   0  0  0  0  0  0  0  0  0  0  0  0
   10.7372   -1.3429   24.2093 C   0  0  1  0  0  0  0  0  0  0  0  0
   10.4982   -2.5585   25.1291 C   0  0  0  0  0  0  0  0  0  0  0  0
   11.6463   -3.4647   25.1060 N   0  0  0  0  0  0  0  0  0  0  0  0
   11.3821   -4.7652   25.7402 C   0  0  0  0  0  0  0  0  0  0  0  0
   10.0054   -4.9757   26.3352 C   0  0  0  0  0  0  0  0  0  0  0  0
    9.8112   -4.9282   27.7240 C   0  0  0  0  0  0  0  0  0  0  0  0
    8.5428   -5.1246   28.2725 C   0  0  0  0  0  0  0  0  0  0  0  0
    7.4540   -5.3744   27.4401 C   0  0  0  0  0  0  0  0  0  0  0  0
    7.6326   -5.4301   26.0595 C   0  0  0  0  0  0  0  0  0  0  0  0
    8.9005   -5.2337   25.5097 C   0  0  0  0  0  0  0  0  0  0  0  0
   12.8462   -2.8019   25.6157 C   0  0  0  0  0  0  0  0  0  0  0  0
   13.1914   -1.5479   24.8059 C   0  0  0  0  0  0  0  0  0  0  0  0
   11.9985   -0.5681   24.7141 C   0  0  1  0  0  0  0  0  0  0  0  0
   12.2830    0.6422   23.9024 N   0  0  0  0  0  0  0  0  0  0  0  0
   11.1535    1.6054   23.9156 C   0  0  0  0  0  0  0  0  0  0  0  0
   11.5124    3.0891   23.6336 C   0  0  0  0  0  0  0  0  0  0  0  0
   12.6586    3.2187   22.7342 N   0  0  0  0  0  0  0  0  0  0  0  0
   12.9356    4.6055   22.3857 C   0  0  0  0  0  0  0  0  0  0  0  0
   13.8384    2.5539   23.3106 C   0  0  0  0  0  0  0  0  0  0  0  0
   13.5359    1.3358   24.2309 C   0  0  0  0  0  0  0  0  0  0  0  0
  1  2  1  0
  2  3  1  0
  3  4  2  0
  4  5  1  0
  5  6  2  0
  6  7  1  0
  7  8  2  0
  8  9  1  0
  9 10  1  0
 10 11  1  0
 11 12  2  0
 11 13  1  0
 13 14  1  0
 15 14  1  6
 15 16  1  0
 16 17  1  0
 17 18  1  0
 18 19  1  0
 19 20  2  0
 20 21  1  0
 21 22  2  0
 22 23  1  0
 23 24  2  0
 17 25  1  0
 25 26  1  0
 26 27  1  0
 27 28  1  6
 28 29  1  0
 29 30  1  0
 30 31  1  0
 31 32  1  0
 31 33  1  0
 33 34  1  0
  8  3  1  0
 27 15  1  0
 34 28  1  0
 24 19  1  0
M  END
