
     RDKit          3D

 36 39  0  0  0  0  0  0  0  0999 V2000
   11.8794    6.1295   23.9400 C   0  0  0  0  0  0  0  0  0  0  0  0
   13.1667    5.5497   23.3808 C   0  0  0  0  0  0  0  0  0  0  0  0
   12.9851    4.4746   22.2971 C   0  0  0  0  0  0  0  0  0  0  0  0
   12.8687    3.0658   22.6747 N   0  0  0  0  0  0  0  0  0  0  0  0
   11.8242    2.7813   23.6664 C   0  0  0  0  0  0  0  0  0  0  0  0
   11.6679    1.2643   23.9207 C   0  0  0  0  0  0  0  0  0  0  0  0
   12.9354    0.6220   24.3425 N   0  0  0  0  0  0  0  0  0  0  0  0
   12.7175   -0.8264   24.5225 C   0  0  0  0  0  0  0  0  0  0  0  0
   13.8238   -1.4935   25.3506 C   0  0  0  0  0  0  0  0  0  0  0  0
   13.5352   -2.9666   25.6399 C   0  0  0  0  0  0  0  0  0  0  0  0
   12.2024   -3.3685   25.2371 N   0  0  0  0  0  0  0  0  0  0  0  0
   11.4021   -4.1716   26.0204 C   0  0  0  0  0  0  0  0  0  0  0  0
   11.7492   -4.6189   27.1075 O   0  0  0  0  0  0  0  0  0  0  0  0
   10.0565   -4.4536   25.3878 C   0  0  0  0  0  0  0  0  0  0  0  0
    9.0931   -3.2889   25.5682 C   0  0  0  0  0  0  0  0  0  0  0  0
    8.4154   -2.9652   24.2565 C   0  0  0  0  0  0  0  0  0  0  0  0
    7.5722   -3.8280   23.7623 N   0  0  0  0  0  0  0  0  0  0  0  0
    6.9948   -3.4046   22.5701 C   0  0  0  0  0  0  0  0  0  0  0  0
    6.2295   -4.1626   21.6749 C   0  0  0  0  0  0  0  0  0  0  0  0
    5.8245   -5.5837   21.7670 C   0  0  0  0  0  0  0  0  0  0  0  0
    5.9014   -3.4308   20.6007 N   0  0  0  0  0  0  0  0  0  0  0  0
    6.2883   -2.1575   20.9222 N   0  0  0  0  0  0  0  0  0  0  0  0
    5.6830   -1.0713   20.2344 C   0  0  0  0  0  0  0  0  0  0  0  0
    5.0619   -0.0502   20.9681 C   0  0  0  0  0  0  0  0  0  0  0  0
    4.4791    1.0320   20.3060 C   0  0  0  0  0  0  0  0  0  0  0  0
    4.5351    1.1124   18.9156 C   0  0  0  0  0  0  0  0  0  0  0  0
    5.1882    0.1207   18.1849 C   0  0  0  0  0  0  0  0  0  0  0  0
    5.7711   -0.9652   18.8422 C   0  0  0  0  0  0  0  0  0  0  0  0
    7.1645   -2.1675   22.0065 C   0  0  0  0  0  0  0  0  0  0  0  0
    8.0891   -1.2251   22.4620 N   0  0  0  0  0  0  0  0  0  0  0  0
    8.6308   -0.1135   21.6834 C   0  0  0  0  0  0  0  0  0  0  0  0
    8.2888    1.2559   22.2578 C   0  0  0  0  0  0  0  0  0  0  0  0
    8.8347   -1.6488   23.5772 C   0  0  0  0  0  0  0  0  0  0  0  0
    9.8132   -1.0602   24.0244 O   0  0  0  0  0  0  0  0  0  0  0  0
   13.9687    0.9135   23.3252 C   0  0  0  0  0  0  0  0  0  0  0  0
   14.1343    2.4313   23.0616 C   0  0  0  0  0  0  0  0  0  0  0  0
  1  2  1  0
  2  3  1  0
  3  4  1  0
  4  5  1  0
  5  6  1  0
  6  7  1  0
  7  8  1  0
  8  9  1  0
  9 10  1  0
 10 11  1  0
 11 12  1  0
 12 13  2  0
 12 14  1  0
 14 15  1  0
 15 16  1  0
 16 17  2  0
 17 18  1  0
 18 19  1  0
 19 20  1  0
 19 21  2  0
 21 22  1  0
 22 23  1  0
 23 24  2  0
 24 25  1  0
 25 26  2  0
 26 27  1  0
 27 28  2  0
 22 29  1  0
 29 30  1  0
 30 31  1  0
 31 32  1  0
 30 33  1  0
 33 34  2  0
  7 35  1  0
 35 36  1  0
 36  4  1  0
 33 16  1  0
 29 18  2  0
 28 23  1  0
M  END
