
     RDKit          3D

 32 34  0  0  0  0  0  0  0  0999 V2000
    0.9917    5.6202   17.2141 C   0  0  0  0  0  0  0  0  0  0  0  0
    1.3352    5.6201   18.7016 C   0  0  0  0  0  0  0  0  0  0  0  0
    2.4372    4.7121   19.0250 N   0  0  0  0  0  0  0  0  0  0  0  0
    2.0672    3.3019   18.7753 C   0  0  0  0  0  0  0  0  0  0  0  0
    2.9071    2.2448   19.5416 C   0  0  0  0  0  0  0  0  0  0  0  0
    4.2605    2.7211   19.8485 N   0  0  0  0  0  0  0  0  0  0  0  0
    5.0952    1.6655   20.4559 C   0  0  0  0  0  0  0  0  0  0  0  0
    5.4814    0.5302   19.4748 C   0  0  1  0  0  0  0  0  0  0  0  0
    5.8662    1.0704   18.1998 O   0  0  0  0  0  0  0  0  0  0  0  0
    6.6521   -0.3034   20.0183 C   0  0  0  0  0  0  0  0  0  0  0  0
    6.7988   -0.0242   21.4213 O   0  0  0  0  0  0  0  0  0  0  0  0
    7.9125   -0.6580   21.9147 C   0  0  0  0  0  0  0  0  0  0  0  0
    7.8112   -2.0005   22.2780 C   0  0  0  0  0  0  0  0  0  0  0  0
    8.9318   -2.6685   22.7709 C   0  0  0  0  0  0  0  0  0  0  0  0
   10.1582   -2.0008   22.8965 C   0  0  0  0  0  0  0  0  0  0  0  0
   11.3776   -2.7075   23.4546 C   0  0  0  0  0  0  0  0  0  0  0  0
   11.5219   -2.7325   24.9195 N   0  0  0  0  0  0  0  0  0  0  0  0
   10.6587   -3.7204   25.5686 C   0  0  0  0  0  0  0  0  0  0  0  0
   12.9031   -2.8315   25.4155 C   0  0  0  0  0  0  0  0  0  0  0  0
   13.4589   -1.4895   25.9346 C   0  0  0  0  0  0  0  0  0  0  0  0
   13.5983   -0.4810   24.8432 C   0  0  0  0  0  0  0  0  0  0  0  0
   14.0776   -0.6760   23.5291 C   0  0  0  0  0  0  0  0  0  0  0  0
   14.0822    0.4488   22.8114 N   0  0  0  0  0  0  0  0  0  0  0  0
   13.5946    1.3696   23.6609 N   0  0  0  0  0  0  0  0  0  0  0  0
   13.4595    2.7398   23.2283 C   0  0  0  0  0  0  0  0  0  0  0  0
   13.2920    0.8626   24.8892 C   0  0  0  0  0  0  0  0  0  0  0  0
   10.2474   -0.6515   22.4958 C   0  0  0  0  0  0  0  0  0  0  0  0
    9.1329    0.0243   21.9945 C   0  0  0  0  0  0  0  0  0  0  0  0
    9.1228    1.3390   21.6143 O   0  0  0  0  0  0  0  0  0  0  0  0
    9.0553    2.2999   22.6615 C   0  0  0  0  0  0  0  0  0  0  0  0
    4.1841    3.9451   20.6763 C   0  0  0  0  0  0  0  0  0  0  0  0
    2.9627    4.8656   20.3863 C   0  0  0  0  0  0  0  0  0  0  0  0
  1  2  1  0
  2  3  1  0
  3  4  1  0
  4  5  1  0
  5  6  1  0
  6  7  1  0
  7  8  1  0
  8  9  1  6
  8 10  1  0
 10 11  1  0
 11 12  1  0
 12 13  2  0
 13 14  1  0
 14 15  2  0
 15 16  1  0
 16 17  1  0
 17 18  1  0
 17 19  1  0
 19 20  1  0
 20 21  1  0
 21 22  1  0
 22 23  2  0
 23 24  1  0
 24 25  1  0
 24 26  1  0
 15 27  1  0
 27 28  2  0
 28 29  1  0
 29 30  1  0
  6 31  1  0
 31 32  1  0
 32  3  1  0
 28 12  1  0
 26 21  2  0
M  END
