
     RDKit          3D

 32 35  0  0  0  0  0  0  0  0999 V2000
    5.7541    1.0385   17.1933 O   0  0  0  0  0  0  0  0  0  0  0  0
    5.8288   -0.0266   18.1340 C   0  0  0  0  0  0  0  0  0  0  0  0
    5.3304    0.4283   19.5038 C   0  0  0  0  0  0  0  0  0  0  0  0
    5.3383   -0.6360   20.4509 O   0  0  0  0  0  0  0  0  0  0  0  0
    6.5335   -1.0316   20.9830 C   0  0  0  0  0  0  0  0  0  0  0  0
    7.7799   -0.4579   20.7404 C   0  0  0  0  0  0  0  0  0  0  0  0
    8.9251   -0.9610   21.3707 C   0  0  0  0  0  0  0  0  0  0  0  0
    8.8399   -2.0422   22.2571 C   0  0  0  0  0  0  0  0  0  0  0  0
   10.0850   -2.5882   22.9283 C   0  0  0  0  0  0  0  0  0  0  0  0
   10.2884   -2.0763   24.2970 N   0  0  0  0  0  0  0  0  0  0  0  0
    9.5321   -2.8828   25.2832 C   0  0  0  0  0  0  0  0  0  0  0  0
   10.1404   -4.2969   25.4670 C   0  0  0  0  0  0  0  0  0  0  0  0
    9.3751   -5.1208   26.4210 N   0  0  0  0  0  0  0  0  0  0  0  0
    9.3204   -4.4840   27.7404 C   0  0  0  0  0  0  0  0  0  0  0  0
    8.5245   -5.3421   28.7239 C   0  0  0  0  0  0  0  0  0  0  0  0
    7.1093   -5.6452   28.2333 C   0  0  0  0  0  0  0  0  0  0  0  0
    6.8773   -5.1538   26.8104 C   0  0  0  0  0  0  0  0  0  0  0  0
    8.0538   -5.5059   25.8974 C   0  0  0  0  0  0  0  0  0  0  0  0
    9.9217   -0.6491   24.3841 C   0  0  0  0  0  0  0  0  0  0  0  0
   11.1504    0.2325   24.6910 C   0  0  1  0  0  0  0  0  0  0  0  0
   12.4751   -0.5077   24.4789 C   0  0  0  0  0  0  0  0  0  0  0  0
   13.6481    0.4414   24.6809 C   0  0  0  0  0  0  0  0  0  0  0  0
   13.5174    1.6935   23.8135 C   0  0  0  0  0  0  0  0  0  0  0  0
   12.2484    2.3992   24.0631 N   0  0  0  0  0  0  0  0  0  0  0  0
   12.1462    3.6337   23.2624 C   0  0  0  0  0  0  0  0  0  0  0  0
   11.1376    4.6513   23.8167 C   0  0  0  0  0  0  0  0  0  0  0  0
   11.4914    5.9606   23.1195 C   0  0  0  0  0  0  0  0  0  0  0  0
   12.9655    5.8508   22.7425 C   0  0  0  0  0  0  0  0  0  0  0  0
   13.4248    4.4840   23.2406 C   0  0  0  0  0  0  0  0  0  0  0  0
   11.1059    1.4999   23.8134 C   0  0  0  0  0  0  0  0  0  0  0  0
    7.5864   -2.6268   22.4805 C   0  0  0  0  0  0  0  0  0  0  0  0
    6.4466   -2.1230   21.8501 C   0  0  0  0  0  0  0  0  0  0  0  0
  1  2  1  0
  2  3  1  0
  3  4  1  0
  4  5  1  0
  5  6  2  0
  6  7  1  0
  7  8  2  0
  8  9  1  0
  9 10  1  0
 10 11  1  0
 11 12  1  0
 12 13  1  0
 13 14  1  0
 14 15  1  0
 15 16  1  0
 16 17  1  0
 17 18  1  0
 10 19  1  0
 20 19  1  6
 20 21  1  0
 21 22  1  0
 22 23  1  0
 23 24  1  0
 24 25  1  0
 25 26  1  0
 26 27  1  0
 27 28  1  0
 28 29  1  0
 24 30  1  0
  8 31  1  0
 31 32  2  0
 32  5  1  0
 18 13  1  0
 30 20  1  0
 29 25  1  0
M  END
