
     RDKit          3D

 36 40  0  0  0  0  0  0  0  0999 V2000
    9.0357    3.9962   24.4615 C   0  0  0  0  0  0  0  0  0  0  0  0
   10.1303    3.0767   23.9293 C   0  0  0  0  0  0  0  0  0  0  0  0
   11.4624    3.6915   24.0104 N   0  0  0  0  0  0  0  0  0  0  0  0
   11.4876    5.0650   23.4949 C   0  0  0  0  0  0  0  0  0  0  0  0
   12.9718    5.3329   23.3392 C   0  0  0  0  0  0  0  0  0  0  0  0
   13.5647    3.9925   22.9296 C   0  0  0  0  0  0  0  0  0  0  0  0
   12.4683    2.9522   23.2059 C   0  0  1  0  0  0  0  0  0  0  0  0
   13.0204    1.7175   23.9441 C   0  0  0  0  0  0  0  0  0  0  0  0
   11.9783    0.7315   24.1694 N   0  0  0  0  0  0  0  0  0  0  0  0
   12.2372   -0.6188   24.1753 C   0  0  0  0  0  0  0  0  0  0  0  0
   13.3609   -1.0784   23.9967 O   0  0  0  0  0  0  0  0  0  0  0  0
   11.0051   -1.4782   24.4299 C   0  0  2  0  0  0  0  0  0  0  0  0
   11.3850   -2.8503   24.9972 C   0  0  0  0  0  0  0  0  0  0  0  0
   10.1302   -3.7165   25.1740 C   0  0  2  0  0  0  0  0  0  0  0  0
   10.4398   -5.1187   25.7412 C   0  0  0  0  0  0  0  0  0  0  0  0
    9.5031   -5.5273   26.7961 N   0  0  0  0  0  0  0  0  0  0  0  0
    8.0960   -5.3736   26.3794 C   0  0  0  0  0  0  0  0  0  0  0  0
    7.1042   -5.7851   27.4941 C   0  0  0  0  0  0  0  0  0  0  0  0
    7.3074   -5.1051   28.7901 N   0  0  0  0  0  0  0  0  0  0  0  0
    6.8671   -3.7125   28.7411 C   0  0  0  0  0  0  0  0  0  0  0  0
    8.7325   -5.2110   29.1672 C   0  0  0  0  0  0  0  0  0  0  0  0
    9.7371   -4.8041   28.0612 C   0  0  0  0  0  0  0  0  0  0  0  0
    9.3449   -3.7988   23.8520 C   0  0  0  0  0  0  0  0  0  0  0  0
    8.9874   -2.4533   23.3564 N   0  0  0  0  0  0  0  0  0  0  0  0
    8.2055   -2.5419   22.1088 C   0  0  0  0  0  0  0  0  0  0  0  0
    7.3042   -1.3457   21.8866 C   0  0  0  0  0  0  0  0  0  0  0  0
    6.9733   -0.4998   22.9521 C   0  0  0  0  0  0  0  0  0  0  0  0
    6.1550    0.6128   22.7488 C   0  0  0  0  0  0  0  0  0  0  0  0
    5.6515    0.9080   21.4735 C   0  0  0  0  0  0  0  0  0  0  0  0
    4.8295    2.0249   21.2528 C   0  0  0  0  0  0  0  0  0  0  0  0
    4.3359    2.3068   19.9777 C   0  0  0  0  0  0  0  0  0  0  0  0
    4.6546    1.4734   18.9092 C   0  0  0  0  0  0  0  0  0  0  0  0
    5.4700    0.3584   19.1125 C   0  0  0  0  0  0  0  0  0  0  0  0
    5.9766    0.0621   20.3888 C   0  0  0  0  0  0  0  0  0  0  0  0
    6.8011   -1.0544   20.6092 C   0  0  0  0  0  0  0  0  0  0  0  0
   10.2042   -1.6507   23.1316 C   0  0  0  0  0  0  0  0  0  0  0  0
  1  2  1  0
  2  3  1  0
  3  4  1  0
  4  5  1  0
  5  6  1  0
  6  7  1  0
  7  8  1  1
  8  9  1  0
  9 10  1  0
 10 11  2  0
 12 10  1  6
 12 13  1  0
 13 14  1  0
 14 15  1  6
 15 16  1  0
 16 17  1  0
 17 18  1  0
 18 19  1  0
 19 20  1  0
 19 21  1  0
 21 22  1  0
 14 23  1  0
 23 24  1  0
 24 25  1  0
 25 26  1  0
 26 27  2  0
 27 28  1  0
 28 29  2  0
 29 30  1  0
 30 31  2  0
 31 32  1  0
 32 33  2  0
 33 34  1  0
 34 35  2  0
 24 36  1  0
  7  3  1  0
 36 12  1  0
 22 16  1  0
 35 26  1  0
 34 29  1  0
M  END
