
     RDKit          3D

 67 69  0  0  0  0  0  0  0  0999 V2000
   -1.0937    4.4354   19.8596 C   0  0  0  0  0  0  0  0  0  0  0  0
   -0.0201    5.1125   20.6685 C   0  0  0  0  0  0  0  0  0  0  0  0
   -0.0797    5.2154   21.8862 O   0  0  0  0  0  0  0  0  0  0  0  0
    1.0052    5.6207   19.9118 N   0  0  0  0  0  0  0  0  0  0  0  0
    2.1604    6.3227   20.4880 C   0  0  2  0  0  0  0  0  0  0  0  0
    3.0007    5.4012   21.4111 C   0  0  1  0  0  0  0  0  0  0  0  0
    3.6039    4.3511   20.6141 O   0  0  0  0  0  0  0  0  0  0  0  0
    2.9475    3.1604   20.5665 C   0  0  0  0  0  0  0  0  0  0  0  0
    3.1329    2.5145   19.2280 C   0  0  0  0  0  0  0  0  0  0  0  0
    2.2610    2.6879   21.4674 O   0  0  0  0  0  0  0  0  0  0  0  0
    4.1446    6.1820   22.1115 C   0  0  2  0  0  0  0  0  0  0  0  0
    4.7386    5.4076   23.1630 O   0  0  0  0  0  0  0  0  0  0  0  0
    5.9661    4.7555   22.8178 C   0  0  2  0  0  0  0  0  0  0  0  0
    5.6393    3.4029   22.5144 O   0  0  0  0  0  0  0  0  0  0  0  0
    6.7934    2.6477   22.1346 C   0  0  2  0  0  0  0  0  0  0  0  0
    6.3080    1.2717   21.6467 C   0  0  0  0  0  0  0  0  0  0  0  0
    6.4162    1.1839   20.2118 O   0  0  0  0  0  0  0  0  0  0  0  0
    5.9483    0.0310   19.6645 C   0  0  0  0  0  0  0  0  0  0  0  0
    6.5049   -0.1428   18.2846 C   0  0  0  0  0  0  0  0  0  0  0  0
    5.1429   -0.7304   20.1851 O   0  0  0  0  0  0  0  0  0  0  0  0
    7.7890    2.5325   23.3043 C   0  0  1  0  0  0  0  0  0  0  0  0
    8.9677    1.8821   22.8095 O   0  0  0  0  0  0  0  0  0  0  0  0
    9.7935    1.2798   23.8055 C   0  0  2  0  0  0  0  0  0  0  0  0
   11.1514    1.6126   23.5286 O   0  0  0  0  0  0  0  0  0  0  0  0
   12.0852    1.0348   24.4453 C   0  0  2  0  0  0  0  0  0  0  0  0
   13.4762    1.5875   24.0836 C   0  0  0  0  0  0  0  0  0  0  0  0
   13.4952    2.4053   22.9048 O   0  0  0  0  0  0  0  0  0  0  0  0
   13.6575    3.7395   23.1257 C   0  0  0  0  0  0  0  0  0  0  0  0
   12.9056    4.5278   22.0986 C   0  0  0  0  0  0  0  0  0  0  0  0
   14.3502    4.2322   24.0042 O   0  0  0  0  0  0  0  0  0  0  0  0
   12.0311   -0.4967   24.3612 C   0  0  1  0  0  0  0  0  0  0  0  0
   12.9147   -1.0659   25.3539 O   0  0  0  0  0  0  0  0  0  0  0  0
   13.8931   -1.8926   24.8957 C   0  0  0  0  0  0  0  0  0  0  0  0
   14.5990   -2.5457   26.0448 C   0  0  0  0  0  0  0  0  0  0  0  0
   14.1851   -2.0690   23.7238 O   0  0  0  0  0  0  0  0  0  0  0  0
   10.6025   -0.9622   24.6711 C   0  0  2  0  0  0  0  0  0  0  0  0
   10.5470   -2.3973   24.4694 O   0  0  0  0  0  0  0  0  0  0  0  0
   10.0785   -3.1430   25.5041 C   0  0  0  0  0  0  0  0  0  0  0  0
   11.0010   -4.2871   25.7856 C   0  0  0  0  0  0  0  0  0  0  0  0
    9.0405   -2.9175   26.1134 O   0  0  0  0  0  0  0  0  0  0  0  0
    9.5657   -0.2593   23.7735 C   0  0  1  0  0  0  0  0  0  0  0  0
    8.2014   -0.6222   24.2033 N   0  0  0  0  0  0  0  0  0  0  0  0
    7.4761   -1.6284   23.6138 C   0  0  0  0  0  0  0  0  0  0  0  0
    6.1081   -1.8270   24.2110 C   0  0  0  0  0  0  0  0  0  0  0  0
    7.8924   -2.3241   22.6953 O   0  0  0  0  0  0  0  0  0  0  0  0
    8.1575    3.9352   23.8338 C   0  0  2  0  0  0  0  0  0  0  0  0
    8.7928    3.7447   25.1298 O   0  0  0  0  0  0  0  0  0  0  0  0
    9.6932    4.6768   25.5307 C   0  0  0  0  0  0  0  0  0  0  0  0
    9.4025    5.1159   26.9335 C   0  0  0  0  0  0  0  0  0  0  0  0
   10.6035    5.1387   24.8594 O   0  0  0  0  0  0  0  0  0  0  0  0
    6.9002    4.8079   24.0506 C   0  0  1  0  0  0  0  0  0  0  0  0
    7.2276    6.1813   24.4703 N   0  0  0  0  0  0  0  0  0  0  0  0
    7.9688    7.0330   23.6868 C   0  0  0  0  0  0  0  0  0  0  0  0
    8.1970    8.3924   24.2884 C   0  0  0  0  0  0  0  0  0  0  0  0
    8.3860    6.7291   22.5755 O   0  0  0  0  0  0  0  0  0  0  0  0
    3.5826    7.4676   22.7540 C   0  0  1  0  0  0  0  0  0  0  0  0
    4.6858    8.3599   23.3551 C   0  0  0  0  0  0  0  0  0  0  0  0
    4.2204    9.6399   23.8072 O   0  0  0  0  0  0  0  0  0  0  0  0
    4.2170   10.6174   22.8575 C   0  0  0  0  0  0  0  0  0  0  0  0
    3.7438   11.9086   23.4486 C   0  0  0  0  0  0  0  0  0  0  0  0
    4.5417   10.4755   21.6865 O   0  0  0  0  0  0  0  0  0  0  0  0
    2.8906    8.2524   21.7799 O   0  0  0  0  0  0  0  0  0  0  0  0
    1.7300    7.5823   21.2784 C   0  0  1  0  0  0  0  0  0  0  0  0
    1.0422    8.5052   20.4214 O   0  0  0  0  0  0  0  0  0  0  0  0
    1.8008    9.0616   19.4415 C   0  0  0  0  0  0  0  0  0  0  0  0
    0.9841   10.0366   18.6513 C   0  0  0  0  0  0  0  0  0  0  0  0
    2.9812    8.8192   19.2294 O   0  0  0  0  0  0  0  0  0  0  0  0
  1  2  1  0
  2  3  2  0
  2  4  1  0
  5  4  1  1
  5  6  1  0
  6  7  1  6
  7  8  1  0
  8  9  1  0
  8 10  2  0
  6 11  1  0
 11 12  1  1
 13 12  1  1
 13 14  1  0
 14 15  1  0
 15 16  1  1
 16 17  1  0
 17 18  1  0
 18 19  1  0
 18 20  2  0
 15 21  1  0
 21 22  1  6
 23 22  1  6
 23 24  1  0
 24 25  1  0
 25 26  1  6
 26 27  1  0
 27 28  1  0
 28 29  1  0
 28 30  2  0
 25 31  1  0
 31 32  1  1
 32 33  1  0
 33 34  1  0
 33 35  2  0
 31 36  1  0
 36 37  1  6
 37 38  1  0
 38 39  1  0
 38 40  2  0
 36 41  1  0
 41 42  1  1
 42 43  1  0
 43 44  1  0
 43 45  2  0
 21 46  1  0
 46 47  1  1
 47 48  1  0
 48 49  1  0
 48 50  2  0
 46 51  1  0
 51 52  1  6
 52 53  1  0
 53 54  1  0
 53 55  2  0
 11 56  1  0
 56 57  1  6
 57 58  1  0
 58 59  1  0
 59 60  1  0
 59 61  2  0
 56 62  1  0
 62 63  1  0
 63 64  1  6
 64 65  1  0
 65 66  1  0
 65 67  2  0
 63  5  1  0
 51 13  1  0
 41 23  1  0
M  END
