
     RDKit          3D

 48 52  0  0  0  0  0  0  0  0999 V2000
    2.1967   -7.0361   23.3619 N   0  0  0  0  0  0  0  0  0  0  0  0
    3.3291   -6.2833   23.4663 C   0  0  0  0  0  0  0  0  0  0  0  0
    3.7268   -5.5813   22.5378 O   0  0  0  0  0  0  0  0  0  0  0  0
    4.1026   -6.3113   24.7245 C   0  0  0  0  0  0  0  0  0  0  0  0
    3.7619   -7.0699   25.8429 C   0  0  0  0  0  0  0  0  0  0  0  0
    4.5740   -6.9995   26.9811 C   0  0  0  0  0  0  0  0  0  0  0  0
    5.6902   -6.1693   26.9837 C   0  0  0  0  0  0  0  0  0  0  0  0
    6.0011   -5.4320   25.8902 N   0  0  0  0  0  4  0  0  0  0  0  0
    7.1773   -4.5158   25.9083 C   0  0  2  0  0  0  0  0  0  0  0  0
    6.9784   -3.4402   24.9818 O   0  0  0  0  0  0  0  0  0  0  0  0
    8.2350   -3.2566   24.3049 C   0  0  2  0  0  0  0  0  0  0  0  0
    8.0072   -2.5442   22.9756 C   0  0  0  0  0  0  0  0  0  0  0  0
    6.6275   -2.4884   22.6364 O   0  0  0  0  0  0  0  0  0  0  0  0
    6.2558   -1.8249   21.2052 P   0  0  2  0  0  5  0  0  0  0  0  0
    5.5716   -2.7958   20.2894 O   0  0  0  0  0  0  0  0  0  0  0  0
    7.6819   -1.3067   20.6727 O   0  0  0  0  0  0  0  0  0  0  0  0
    5.4537   -0.5202   21.6243 O   0  0  0  0  0  0  0  0  0  0  0  0
    5.9795    0.4011   22.8104 P   0  0  2  0  0  5  0  0  0  0  0  0
    6.0774   -0.2478   24.1530 O   0  0  0  0  0  0  0  0  0  0  0  0
    4.9775    1.6431   22.7460 O   0  0  0  0  0  0  0  0  0  0  0  0
    7.3389    1.0001   22.1936 O   0  0  0  0  0  0  0  0  0  0  0  0
    8.0811    1.8741   23.0286 C   0  0  0  0  0  0  0  0  0  0  0  0
    9.4959    2.0456   22.4852 C   0  0  2  0  0  0  0  0  0  0  0  0
   10.2552    0.8404   22.6917 O   0  0  0  0  0  0  0  0  0  0  0  0
   11.6498    1.2008   22.8260 C   0  0  2  0  0  0  0  0  0  0  0  0
   12.2139    0.4458   23.9273 N   0  0  0  0  0  0  0  0  0  0  0  0
   12.0018    0.7321   25.2560 C   0  0  0  0  0  0  0  0  0  0  0  0
   12.6717   -0.0723   26.0505 N   0  0  0  0  0  0  0  0  0  0  0  0
   13.3320   -0.9365   25.2022 C   0  0  0  0  0  0  0  0  0  0  0  0
   13.0544   -0.6331   23.8763 C   0  0  0  0  0  0  0  0  0  0  0  0
   13.5123   -1.2774   22.7882 N   0  0  0  0  0  0  0  0  0  0  0  0
   14.2902   -2.3243   23.1478 C   0  0  0  0  0  0  0  0  0  0  0  0
   14.6419   -2.7227   24.3857 N   0  0  0  0  0  0  0  0  0  0  0  0
   14.1805   -2.0309   25.4425 C   0  0  0  0  0  0  0  0  0  0  0  0
   14.5407   -2.4584   26.7070 N   0  0  0  0  0  0  0  0  0  0  0  0
   11.7281    2.7342   22.8784 C   0  0  2  0  0  0  0  0  0  0  0  0
   12.6684    3.2627   23.7968 O   0  0  0  0  0  0  0  0  0  0  0  0
   13.2856    4.6734   23.3555 P   0  0  0  0  0  0  0  0  0  0  0  0
   12.4228    5.8479   23.6555 O   0  0  0  0  0  0  0  0  0  0  0  0
   14.7365    4.7012   24.0136 O   0  0  0  0  0  0  0  0  0  0  0  0
   13.6391    4.5403   21.8077 O   0  0  0  0  0  0  0  0  0  0  0  0
   10.2937    3.1780   23.1319 C   0  0  2  0  0  0  0  0  0  0  0  0
    9.9646    3.3387   24.5161 O   0  0  0  0  0  0  0  0  0  0  0  0
    8.8202   -4.6595   24.1753 C   0  0  2  0  0  0  0  0  0  0  0  0
    8.1619   -5.4230   23.1549 O   0  0  0  0  0  0  0  0  0  0  0  0
    8.4633   -5.2749   25.5189 C   0  0  1  0  0  0  0  0  0  0  0  0
    9.4865   -5.0548   26.4881 O   0  0  0  0  0  0  0  0  0  0  0  0
    5.2381   -5.4962   24.7720 C   0  0  0  0  0  0  0  0  0  0  0  0
  1  2  1  0
  2  3  2  0
  2  4  1  0
  4  5  2  0
  5  6  1  0
  6  7  2  0
  7  8  1  0
  9  8  1  6
  9 10  1  0
 10 11  1  0
 11 12  1  6
 12 13  1  0
 13 14  1  0
 14 15  2  0
 14 16  1  6
 14 17  1  0
 17 18  1  0
 18 19  2  0
 18 20  1  1
 18 21  1  0
 21 22  1  0
 23 22  1  1
 23 24  1  0
 24 25  1  0
 25 26  1  1
 26 27  1  0
 27 28  2  0
 28 29  1  0
 29 30  2  0
 30 31  1  0
 31 32  2  0
 32 33  1  0
 33 34  2  0
 34 35  1  0
 25 36  1  0
 36 37  1  1
 37 38  1  0
 38 39  2  0
 38 40  1  0
 38 41  1  0
 36 42  1  0
 42 43  1  1
 11 44  1  0
 44 45  1  6
 44 46  1  0
 46 47  1  1
  8 48  2  0
 48  4  1  0
 46  9  1  0
 42 23  1  0
 30 26  1  0
 34 29  1  0
M  CHG  1   8   1
M  END
