
     RDKit          3D

 40 42  0  0  0  0  0  0  0  0999 V2000
    8.5509   -0.4961   26.6998 C   0  0  0  0  0  0  0  0  0  0  0  0
    9.5746   -1.0594   25.8219 N   0  0  0  0  0  0  0  0  0  0  0  0
   10.5528   -0.0068   25.3895 C   0  0  1  0  0  0  0  0  0  0  0  0
   11.9901   -0.5427   25.5775 C   0  0  1  0  0  0  0  0  0  0  0  0
   12.0170   -1.9879   25.6015 O   0  0  0  0  0  0  0  0  0  0  0  0
   12.9482   -0.0923   24.4712 C   0  0  1  0  0  0  0  0  0  0  0  0
   14.2252   -0.7179   24.6706 O   0  0  0  0  0  0  0  0  0  0  0  0
   12.3745   -0.3740   23.0544 C   0  0  1  0  0  0  0  0  0  0  0  0
   12.9473   -1.6270   22.3755 C   0  0  0  0  0  0  0  0  0  0  0  0
   14.1477   -1.3436   21.6613 O   0  0  0  0  0  0  0  0  0  0  0  0
   10.9428   -0.4746   23.0330 O   0  0  0  0  0  0  0  0  0  0  0  0
   10.3238    0.4513   23.9156 C   0  0  1  0  0  0  0  0  0  0  0  0
    8.9124    0.5472   23.6884 O   0  0  0  0  0  0  0  0  0  0  0  0
    8.6036    0.8338   22.3249 C   0  0  1  0  0  0  0  0  0  0  0  0
    8.5981   -0.3824   21.5539 O   0  0  0  0  0  0  0  0  0  0  0  0
    7.2456   -0.6608   21.1407 C   0  0  1  0  0  0  0  0  0  0  0  0
    6.6430   -1.6551   22.1278 C   0  0  0  0  0  0  0  0  0  0  0  0
    6.5449    0.7069   21.0801 C   0  0  2  0  0  0  0  0  0  0  0  0
    5.1385    0.6463   21.3191 O   0  0  0  0  0  0  0  0  0  0  0  0
    6.6381    1.3689   19.8202 O   0  0  0  0  0  0  0  0  0  0  0  0
    6.2032    0.6712   18.6664 C   0  0  0  0  0  0  0  0  0  0  0  0
    7.1912    1.4319   22.2649 C   0  0  2  0  0  0  0  0  0  0  0  0
    7.1962    2.8513   22.0735 O   0  0  0  0  0  0  0  0  0  0  0  0
    7.2017    3.6270   23.2774 C   0  0  2  0  0  0  0  0  0  0  0  0
    5.7860    4.1787   23.5437 C   0  0  2  0  0  0  0  0  0  0  0  0
    4.8373    3.1307   23.7601 O   0  0  0  0  0  0  0  0  0  0  0  0
    5.2882    5.1241   22.4336 C   0  0  2  0  0  0  0  0  0  0  0  0
    5.0844    4.4530   21.1763 O   0  0  0  0  0  0  0  0  0  0  0  0
    6.2853    6.2860   22.2104 C   0  0  2  0  0  0  0  0  0  0  0  0
    5.8234    7.0610   21.0554 N   0  0  0  0  0  0  0  0  0  0  0  0
    5.8277    8.3996   20.9646 C   0  0  0  0  0  0  0  0  0  0  0  0
    6.2502    9.1587   21.9105 N   0  0  0  0  0  0  0  0  0  0  0  0
    5.3579    8.8622   19.7962 N   0  0  0  0  0  0  0  0  0  0  0  0
    7.7240    5.7590   21.9699 C   0  0  1  0  0  0  0  0  0  0  0  0
    8.6990    6.8245   21.9132 O   0  0  0  0  0  0  0  0  0  0  0  0
    8.1764    4.8090   23.1110 C   0  0  2  0  0  0  0  0  0  0  0  0
    9.5494    4.3481   22.8207 N   0  0  0  0  0  0  0  0  0  0  0  0
   10.4867    4.1527   23.7718 C   0  0  0  0  0  0  0  0  0  0  0  0
   11.6941    3.7588   23.6271 N   0  0  0  0  0  0  0  0  0  0  0  0
   10.0572    4.4869   25.0015 N   0  0  0  0  0  0  0  0  0  0  0  0
  1  2  1  0
  3  2  1  6
  3  4  1  0
  4  5  1  6
  4  6  1  0
  6  7  1  1
  6  8  1  0
  8  9  1  1
  9 10  1  0
  8 11  1  0
 11 12  1  0
 12 13  1  6
 14 13  1  1
 14 15  1  0
 15 16  1  0
 16 17  1  1
 16 18  1  0
 18 19  1  1
 18 20  1  0
 20 21  1  0
 18 22  1  0
 22 23  1  6
 24 23  1  6
 24 25  1  0
 25 26  1  6
 25 27  1  0
 27 28  1  6
 27 29  1  0
 29 30  1  6
 30 31  1  0
 31 32  2  0
 31 33  1  0
 29 34  1  0
 34 35  1  1
 34 36  1  0
 36 37  1  6
 37 38  1  0
 38 39  2  0
 38 40  1  0
 12  3  1  0
 22 14  1  0
 36 24  1  0
M  END
