
     RDKit          3D

 40 42  0  0  0  0  0  0  0  0999 V2000
    6.2221    6.9162   21.0134 N   0  0  0  0  0  0  0  0  0  0  0  0
    7.4301    7.0259   21.8309 C   0  0  0  0  0  0  0  0  0  0  0  0
    7.7557    5.7344   22.5957 C   0  0  0  0  0  0  0  0  0  0  0  0
    8.9971    5.7946   23.4866 C   0  0  2  0  0  0  0  0  0  0  0  0
   10.1481    6.1243   22.7013 O   0  0  0  0  0  0  0  0  0  0  0  0
    9.2094    4.4781   24.2550 C   0  0  0  0  0  0  0  0  0  0  0  0
    9.6750    4.4459   25.3929 O   0  0  0  0  0  0  0  0  0  0  0  0
    8.8332    3.3385   23.5647 N   0  0  0  0  0  0  0  0  0  0  0  0
    9.0083    2.0496   24.2375 C   0  0  2  0  0  0  0  0  0  0  0  0
   10.4697    1.5990   24.2077 C   0  0  0  0  0  0  0  0  0  0  0  0
   10.6637    0.2912   24.9995 C   0  0  2  0  0  0  0  0  0  0  0  0
   11.9921   -0.2678   24.6828 N   0  0  0  0  0  0  0  0  0  0  0  0
    9.4823   -0.7243   24.8193 C   0  0  2  0  0  0  0  0  0  0  0  0
    9.9435   -2.0819   24.7024 O   0  0  0  0  0  0  0  0  0  0  0  0
    9.0732   -3.0573   25.2804 C   0  0  2  0  0  0  0  0  0  0  0  0
    8.8576   -2.7854   26.6560 O   0  0  0  0  0  0  0  0  0  0  0  0
    8.0400   -3.7605   27.3226 C   0  0  2  0  0  0  0  0  0  0  0  0
    7.7751   -3.2692   28.7658 C   0  0  0  0  0  0  0  0  0  0  0  0
    7.2420   -1.9065   28.8426 N   0  0  0  0  0  0  0  0  0  0  0  0
    8.6879   -5.1587   27.2729 C   0  0  2  0  0  0  0  0  0  0  0  0
    9.8733   -5.2128   28.0835 O   0  0  0  0  0  0  0  0  0  0  0  0
    9.0179   -5.5329   25.8178 C   0  0  2  0  0  0  0  0  0  0  0  0
    9.8110   -6.7327   25.8123 O   0  0  0  0  0  0  0  0  0  0  0  0
    9.7672   -4.4196   25.0827 C   0  0  2  0  0  0  0  0  0  0  0  0
   11.1280   -4.4119   25.5657 O   0  0  0  0  0  0  0  0  0  0  0  0
    8.6729   -0.4222   23.5436 C   0  0  2  0  0  0  0  0  0  0  0  0
    9.5274   -0.5314   22.3914 O   0  0  0  0  0  0  0  0  0  0  0  0
    8.0302    0.9775   23.6519 C   0  0  2  0  0  0  0  0  0  0  0  0
    7.5259    1.4484   22.3896 O   0  0  0  0  0  0  0  0  0  0  0  0
    6.1212    1.2730   22.1986 C   0  0  2  0  0  0  0  0  0  0  0  0
    5.8243   -0.0143   21.6578 O   0  0  0  0  0  0  0  0  0  0  0  0
    5.8064   -0.0877   20.2252 C   0  0  2  0  0  0  0  0  0  0  0  0
    7.2001    0.0434   19.5760 C   0  0  0  0  0  0  0  0  0  0  0  0
    7.3549   -0.7110   18.3746 O   0  0  0  0  0  0  0  0  0  0  0  0
    4.6967    0.8115   19.6424 C   0  0  2  0  0  0  0  0  0  0  0  0
    4.9741    1.2343   18.2995 O   0  0  0  0  0  0  0  0  0  0  0  0
    4.3498    2.0121   20.5500 C   0  0  2  0  0  0  0  0  0  0  0  0
    3.7961    3.1323   19.7402 N   0  0  0  0  0  0  0  0  0  0  0  0
    5.5637    2.4628   21.3723 C   0  0  1  0  0  0  0  0  0  0  0  0
    5.1389    3.5235   22.2585 O   0  0  0  0  0  0  0  0  0  0  0  0
  1  2  1  0
  2  3  1  0
  3  4  1  0
  4  5  1  6
  4  6  1  0
  6  7  2  0
  6  8  1  0
  9  8  1  6
  9 10  1  0
 10 11  1  0
 11 12  1  6
 11 13  1  0
 13 14  1  6
 15 14  1  1
 15 16  1  0
 16 17  1  0
 17 18  1  1
 18 19  1  0
 17 20  1  0
 20 21  1  1
 20 22  1  0
 22 23  1  1
 22 24  1  0
 24 25  1  1
 13 26  1  0
 26 27  1  6
 26 28  1  0
 28 29  1  6
 30 29  1  6
 30 31  1  0
 31 32  1  0
 32 33  1  6
 33 34  1  0
 32 35  1  0
 35 36  1  6
 35 37  1  0
 37 38  1  6
 37 39  1  0
 39 40  1  1
 28  9  1  0
 39 30  1  0
 24 15  1  0
M  END
