
     RDKit          3D

 33 35  0  0  0  0  0  0  0  0999 V2000
   12.9910    3.9799   23.3553 C   0  0  0  0  0  0  0  0  0  0  0  0
   11.8100    4.5210   24.1465 C   0  0  0  0  0  0  0  0  0  0  0  0
   10.8314    3.4563   24.3628 N   0  0  0  0  0  0  0  0  0  0  0  0
   10.0569    3.1316   23.1478 C   0  0  2  0  0  0  0  0  0  0  0  0
    8.7556    3.9467   23.1039 C   0  0  0  0  0  0  0  0  0  0  0  0
    7.8732    3.5517   21.9114 C   0  0  2  0  0  0  0  0  0  0  0  0
    6.6360    4.3540   21.9185 N   0  0  0  0  0  0  0  0  0  0  0  0
    7.5823    2.0302   21.9195 C   0  0  1  0  0  0  0  0  0  0  0  0
    6.8720    1.6498   20.7291 O   0  0  0  0  0  0  0  0  0  0  0  0
    5.5937    1.0617   21.0268 C   0  0  2  0  0  0  0  0  0  0  0  0
    5.7576   -0.2595   21.5663 O   0  0  0  0  0  0  0  0  0  0  0  0
    5.9768   -1.2806   20.6581 C   0  0  0  0  0  0  0  0  0  0  0  0
    6.4316   -2.5620   21.3244 C   0  0  0  0  0  0  0  0  0  0  0  0
    5.9492   -2.7558   22.6899 N   0  0  0  0  0  0  0  0  0  0  0  0
    5.7978   -1.1251   19.3344 C   0  0  0  0  0  0  0  0  0  0  0  0
    5.2984    0.1405   18.7109 C   0  0  0  0  0  0  0  0  0  0  0  0
    4.6961    1.0790   19.7632 C   0  0  2  0  0  0  0  0  0  0  0  0
    4.4672    2.4335   19.2105 N   0  0  0  0  0  0  0  0  0  0  0  0
    8.9028    1.2444   21.9135 C   0  0  2  0  0  0  0  0  0  0  0  0
    8.6269   -0.1692   21.8977 O   0  0  0  0  0  0  0  0  0  0  0  0
    9.7529    1.6106   23.1404 C   0  0  1  0  0  0  0  0  0  0  0  0
   11.0045    0.9067   23.0628 O   0  0  0  0  0  0  0  0  0  0  0  0
   11.2935    0.1547   24.2465 C   0  0  2  0  0  0  0  0  0  0  0  0
   12.6272    0.4377   24.6780 O   0  0  0  0  0  0  0  0  0  0  0  0
   13.5837   -0.4108   24.0505 C   0  0  0  0  0  0  0  0  0  0  0  0
   13.4316   -1.8678   24.5367 C   0  0  2  0  0  0  0  0  0  0  0  0
   14.3133   -2.1249   25.7624 C   0  0  0  0  0  0  0  0  0  0  0  0
   13.9121   -2.7328   23.4925 O   0  0  0  0  0  0  0  0  0  0  0  0
   11.9395   -2.2051   24.8407 C   0  0  2  0  0  0  0  0  0  0  0  0
   11.6759   -3.6610   24.6109 N   0  0  0  0  0  0  0  0  0  0  0  0
   11.3632   -4.3457   25.8651 C   0  0  0  0  0  0  0  0  0  0  0  0
   11.0380   -1.3417   23.9357 C   0  0  1  0  0  0  0  0  0  0  0  0
    9.6546   -1.6858   24.1512 O   0  0  0  0  0  0  0  0  0  0  0  0
  1  2  1  0
  2  3  1  0
  4  3  1  1
  4  5  1  0
  5  6  1  0
  6  7  1  1
  6  8  1  0
  8  9  1  6
 10  9  1  6
 10 11  1  0
 11 12  1  0
 12 13  1  0
 13 14  1  0
 12 15  2  0
 15 16  1  0
 16 17  1  0
 17 18  1  6
  8 19  1  0
 19 20  1  1
 19 21  1  0
 21 22  1  6
 23 22  1  6
 23 24  1  0
 24 25  1  0
 25 26  1  0
 26 27  1  1
 26 28  1  0
 26 29  1  0
 29 30  1  6
 30 31  1  0
 29 32  1  0
 32 33  1  1
 21  4  1  0
 32 23  1  0
 17 10  1  0
M  END
