
     RDKit          3D

 32 33  0  0  0  0  0  0  0  0999 V2000
    6.0035    1.0259   17.1476 O   0  0  0  0  0  0  0  0  0  0  0  0
    5.2836    0.5057   18.2570 C   0  0  0  0  0  0  0  0  0  0  0  0
    5.8275    1.0744   19.5413 C   0  0  0  0  0  0  0  0  0  0  0  0
    5.2761    2.2468   20.0813 C   0  0  0  0  0  0  0  0  0  0  0  0
    5.7474    2.7801   21.2915 C   0  0  0  0  0  0  0  0  0  0  0  0
    5.1207    4.0386   21.8626 C   0  0  1  0  0  0  0  0  0  0  0  0
    4.1378    3.6466   22.8303 O   0  0  0  0  0  0  0  0  0  0  0  0
    6.1760    4.9730   22.5105 C   0  0  0  0  0  0  0  0  0  0  0  0
    7.2473    5.4554   21.6127 N   0  0  0  0  0  0  0  0  0  0  0  0
    8.0761    6.4944   22.2280 C   0  0  0  0  0  0  0  0  0  0  0  0
    8.9472    5.8717   23.3254 C   0  0  0  0  0  0  0  0  0  0  0  0
   10.4159    6.2718   23.1592 C   0  0  0  0  0  0  0  0  0  0  0  0
   11.3780    5.0804   23.1892 C   0  0  0  0  0  0  0  0  0  0  0  0
   12.6187    5.1995   22.3007 C   0  0  0  0  0  0  0  0  0  0  0  0
   13.3531    3.8751   22.0974 C   0  0  0  0  0  0  0  0  0  0  0  0
   13.9154    3.3566   23.3001 O   0  0  0  0  0  0  0  0  0  0  0  0
   13.3543    2.1503   23.8214 C   0  0  0  0  0  0  0  0  0  0  0  0
   13.9959    0.8512   23.3241 C   0  0  0  0  0  0  0  0  0  0  0  0
   13.8816   -0.1633   24.3236 O   0  0  0  0  0  0  0  0  0  0  0  0
   13.9390   -1.4864   23.7930 C   0  0  0  0  0  0  0  0  0  0  0  0
   12.8611   -2.3596   24.3891 C   0  0  0  0  0  0  0  0  0  0  0  0
   13.1213   -3.1435   25.5300 C   0  0  0  0  0  0  0  0  0  0  0  0
   14.6777   -3.1822   26.2872 Cl  0  0  0  0  0  0  0  0  0  0  0  0
   12.1279   -3.9501   26.0991 C   0  0  0  0  0  0  0  0  0  0  0  0
   10.8527   -3.9890   25.5470 C   0  0  0  0  0  0  0  0  0  0  0  0
   10.5694   -3.2169   24.4242 C   0  0  0  0  0  0  0  0  0  0  0  0
   11.5615   -2.4108   23.8500 C   0  0  0  0  0  0  0  0  0  0  0  0
   11.0978   -1.4942   22.4551 Cl  0  0  0  0  0  0  0  0  0  0  0  0
    6.7939    2.1257   21.9582 C   0  0  0  0  0  0  0  0  0  0  0  0
    7.3434    0.9536   21.4387 C   0  0  0  0  0  0  0  0  0  0  0  0
    6.8540    0.4352   20.2429 C   0  0  0  0  0  0  0  0  0  0  0  0
    7.3575   -0.7332   19.7441 O   0  0  0  0  0  0  0  0  0  0  0  0
  1  2  1  0
  2  3  1  0
  3  4  2  0
  4  5  1  0
  5  6  1  0
  6  7  1  1
  6  8  1  0
  8  9  1  0
  9 10  1  0
 10 11  1  0
 11 12  1  0
 12 13  1  0
 13 14  1  0
 14 15  1  0
 15 16  1  0
 16 17  1  0
 17 18  1  0
 18 19  1  0
 19 20  1  0
 20 21  1  0
 21 22  2  0
 22 23  1  0
 22 24  1  0
 24 25  2  0
 25 26  1  0
 26 27  2  0
 27 28  1  0
  5 29  2  0
 29 30  1  0
 30 31  2  0
 31 32  1  0
 31  3  1  0
 27 21  1  0
M  END
