
     RDKit          3D

 34 35  0  0  0  0  0  0  0  0999 V2000
    6.8167    7.0431   21.1441 N   0  0  0  0  0  0  0  0  0  0  0  0
    7.6042    5.9966   21.8607 C   0  0  2  0  0  0  0  0  0  0  0  0
    6.7123    5.0734   22.7076 C   0  0  0  0  0  0  0  0  0  0  0  0
    5.7336    4.2636   21.8879 C   0  0  0  0  0  0  0  0  0  0  0  0
    4.5105    4.8202   21.4888 C   0  0  0  0  0  0  0  0  0  0  0  0
    3.6086    4.0738   20.7289 C   0  0  0  0  0  0  0  0  0  0  0  0
    3.9195    2.7666   20.3605 C   0  0  0  0  0  0  0  0  0  0  0  0
    5.1353    2.2040   20.7498 C   0  0  0  0  0  0  0  0  0  0  0  0
    6.0386    2.9483   21.5104 C   0  0  0  0  0  0  0  0  0  0  0  0
    8.6240    6.6698   22.7982 C   0  0  0  0  0  0  0  0  0  0  0  0
    8.3685    7.6862   23.4358 O   0  0  0  0  0  0  0  0  0  0  0  0
    9.8546    6.0482   22.7977 N   0  0  0  0  0  0  0  0  0  0  0  0
   10.9667    6.5046   23.6008 C   0  0  0  0  0  0  0  0  0  0  0  0
   12.3067    6.1343   22.9707 C   0  0  0  0  0  0  0  0  0  0  0  0
   12.9354    4.8542   23.5301 C   0  0  0  0  0  0  0  0  0  0  0  0
   12.3879    3.5380   22.9650 C   0  0  0  0  0  0  0  0  0  0  0  0
   13.0004    2.2406   23.4905 C   0  0  0  0  0  0  0  0  0  0  0  0
   12.1340    0.9788   23.4133 C   0  0  0  0  0  0  0  0  0  0  0  0
   12.9129   -0.3392   23.3140 C   0  0  0  0  0  0  0  0  0  0  0  0
   13.7659   -0.6434   24.5489 C   0  0  0  0  0  0  0  0  0  0  0  0
   14.0744   -2.1325   24.7253 C   0  0  0  0  0  0  0  0  0  0  0  0
   13.2433   -2.8082   25.8116 C   0  0  0  0  0  0  0  0  0  0  0  0
   12.1061   -3.4929   25.2400 N   0  0  0  0  0  0  0  0  0  0  0  0
   11.3321   -4.3534   25.9946 C   0  0  0  0  0  0  0  0  0  0  0  0
   11.5568   -4.6349   27.1672 O   0  0  0  0  0  0  0  0  0  0  0  0
   10.1734   -4.9765   25.1962 C   0  0  1  0  0  0  0  0  0  0  0  0
    9.9248   -6.3607   25.6986 N   0  0  0  0  0  0  0  0  0  0  0  0
    8.9367   -4.0748   25.3472 C   0  0  0  0  0  0  0  0  0  0  0  0
    8.1046   -3.9929   24.0878 C   0  0  0  0  0  0  0  0  0  0  0  0
    7.6818   -5.1606   23.4391 C   0  0  0  0  0  0  0  0  0  0  0  0
    6.9336   -5.0847   22.2635 C   0  0  0  0  0  0  0  0  0  0  0  0
    6.6015   -3.8424   21.7256 C   0  0  0  0  0  0  0  0  0  0  0  0
    7.0163   -2.6746   22.3640 C   0  0  0  0  0  0  0  0  0  0  0  0
    7.7646   -2.7482   23.5398 C   0  0  0  0  0  0  0  0  0  0  0  0
  2  1  1  1
  2  3  1  0
  3  4  1  0
  4  5  2  0
  5  6  1  0
  6  7  2  0
  7  8  1  0
  8  9  2  0
  2 10  1  0
 10 11  2  0
 10 12  1  0
 12 13  1  0
 13 14  1  0
 14 15  1  0
 15 16  1  0
 16 17  1  0
 17 18  1  0
 18 19  1  0
 19 20  1  0
 20 21  1  0
 21 22  1  0
 22 23  1  0
 23 24  1  0
 24 25  2  0
 24 26  1  0
 26 27  1  1
 26 28  1  0
 28 29  1  0
 29 30  2  0
 30 31  1  0
 31 32  2  0
 32 33  1  0
 33 34  2  0
  9  4  1  0
 34 29  1  0
M  END
