
     RDKit          3D

 30 32  0  0  0  0  0  0  0  0999 V2000
    6.0070   -4.8884   21.2848 C   0  0  0  0  0  0  0  0  0  0  0  0
    5.8849   -3.5572   21.7634 O   0  0  0  0  0  0  0  0  0  0  0  0
    7.0206   -2.7837   21.7972 C   0  0  0  0  0  0  0  0  0  0  0  0
    8.1546   -3.0751   22.5668 C   0  0  0  0  0  0  0  0  0  0  0  0
    9.2737   -2.2276   22.5509 C   0  0  0  0  0  0  0  0  0  0  0  0
   10.4780   -2.5281   23.4194 C   0  0  0  0  0  0  0  0  0  0  0  0
   11.5174   -1.4988   23.3462 N   0  0  0  0  0  0  0  0  0  0  0  0
   12.8412   -2.0197   23.0051 C   0  0  0  0  0  0  0  0  0  0  0  0
   13.7399   -0.8319   23.3124 C   0  0  0  0  0  0  0  0  0  0  0  0
   13.1350   -0.2340   24.5898 C   0  0  1  0  0  0  0  0  0  0  0  0
   13.8281   -0.7480   25.7414 O   0  0  0  0  0  0  0  0  0  0  0  0
   13.1567    1.3190   24.6004 C   0  0  0  0  0  0  0  0  0  0  0  0
   12.8237    1.9870   23.3234 N   0  0  0  0  0  0  0  0  0  0  0  0
   11.4025    2.3976   23.2752 C   0  0  0  0  0  0  0  0  0  0  0  0
   11.1666    3.9039   23.5200 C   0  0  0  0  0  0  0  0  0  0  0  0
   11.8388    4.7610   22.5233 N   0  0  0  0  0  0  0  0  0  0  0  0
   12.0378    6.1075   23.0501 C   0  0  0  0  0  0  0  0  0  0  0  0
   13.1031    4.1541   22.0589 C   0  0  0  0  0  0  0  0  0  0  0  0
   13.7169    3.1313   23.0424 C   0  0  0  0  0  0  0  0  0  0  0  0
   11.6844   -0.7783   24.6161 C   0  0  0  0  0  0  0  0  0  0  0  0
    9.2360   -1.0761   21.7554 C   0  0  0  0  0  0  0  0  0  0  0  0
    8.1129   -0.7791   20.9808 C   0  0  0  0  0  0  0  0  0  0  0  0
    6.9981   -1.6213   21.0012 C   0  0  0  0  0  0  0  0  0  0  0  0
    5.8492   -1.4045   20.2823 O   0  0  0  0  0  0  0  0  0  0  0  0
    5.2591   -0.1083   20.3426 C   0  0  0  0  0  0  0  0  0  0  0  0
    5.5491    0.6245   19.0326 C   0  0  0  0  0  0  0  0  0  0  0  0
    4.3868    1.5465   18.6362 C   0  0  0  0  0  0  0  0  0  0  0  0
    3.8224    2.2797   19.7867 N   0  0  0  0  0  0  0  0  0  0  0  0
    4.8388    3.0816   20.4722 C   0  0  0  0  0  0  0  0  0  0  0  0
    2.7357    3.1522   19.3319 C   0  0  0  0  0  0  0  0  0  0  0  0
  1  2  1  0
  2  3  1  0
  3  4  2  0
  4  5  1  0
  5  6  1  0
  6  7  1  0
  7  8  1  0
  8  9  1  0
  9 10  1  0
 10 11  1  1
 10 12  1  0
 12 13  1  0
 13 14  1  0
 14 15  1  0
 15 16  1  0
 16 17  1  0
 16 18  1  0
 18 19  1  0
 10 20  1  0
  5 21  2  0
 21 22  1  0
 22 23  2  0
 23 24  1  0
 24 25  1  0
 25 26  1  0
 26 27  1  0
 27 28  1  0
 28 29  1  0
 28 30  1  0
 23  3  1  0
 20  7  1  0
 19 13  1  0
M  END
