
     RDKit          3D

 36 39  0  0  0  0  0  0  0  0999 V2000
   10.4088   -1.1736   22.5241 C   0  0  0  0  0  0  0  0  0  0  0  0
   11.7161   -1.7201   22.4417 O   0  0  0  0  0  0  0  0  0  0  0  0
   12.2295   -2.3217   23.5648 C   0  0  0  0  0  0  0  0  0  0  0  0
   11.5365   -3.2491   24.3553 C   0  0  0  0  0  0  0  0  0  0  0  0
   12.1257   -3.8115   25.5001 C   0  0  0  0  0  0  0  0  0  0  0  0
   11.3218   -4.7703   26.3545 C   0  0  0  0  0  0  0  0  0  0  0  0
   10.3831   -5.6122   25.6098 N   0  0  0  0  0  0  0  0  0  0  0  0
    9.0714   -5.7471   26.2596 C   0  0  0  0  0  0  0  0  0  0  0  0
    7.9880   -4.8811   25.5866 C   0  0  1  0  0  0  0  0  0  0  0  0
    6.6919   -5.3179   26.0444 O   0  0  0  0  0  0  0  0  0  0  0  0
    8.1087   -3.3868   25.8835 C   0  0  0  0  0  0  0  0  0  0  0  0
    7.3347   -2.7571   24.7263 C   0  0  0  0  0  0  0  0  0  0  0  0
    7.6822   -3.6045   23.5876 N   0  0  0  0  0  0  0  0  0  0  0  0
    7.0104   -3.3981   22.3945 C   0  0  0  0  0  0  0  0  0  0  0  0
    6.8936   -2.1368   21.8300 C   0  0  0  0  0  0  0  0  0  0  0  0
    6.2041   -1.9901   20.6353 C   0  0  0  0  0  0  0  0  0  0  0  0
    6.0969   -0.7079   20.0419 N   0  0  0  0  0  0  0  0  0  0  0  0
    4.9681    0.0676   20.5638 C   0  0  0  0  0  0  0  0  0  0  0  0
    6.1554   -0.7574   18.5810 C   0  0  0  0  0  0  0  0  0  0  0  0
    5.6242   -3.0476   20.0462 N   0  0  0  0  0  0  0  0  0  0  0  0
    5.7576   -4.2234   20.6696 C   0  0  0  0  0  0  0  0  0  0  0  0
    6.4233   -4.4526   21.8079 N   0  0  0  0  0  0  0  0  0  0  0  0
    8.0744   -4.9419   24.0421 C   0  0  0  0  0  0  0  0  0  0  0  0
   13.4234   -3.4145   25.8456 C   0  0  0  0  0  0  0  0  0  0  0  0
   14.1319   -2.5092   25.0526 C   0  0  0  0  0  0  0  0  0  0  0  0
   13.5430   -1.9531   23.9147 C   0  0  0  0  0  0  0  0  0  0  0  0
   14.1547   -1.0432   23.0909 O   0  0  0  0  0  0  0  0  0  0  0  0
   14.2437    0.3133   23.5259 C   0  0  0  0  0  0  0  0  0  0  0  0
   13.0593    1.1163   22.9490 C   0  0  0  0  0  0  0  0  0  0  0  0
   12.7963    2.4622   23.5033 N   0  0  0  0  0  0  0  0  0  0  0  0
   11.4882    2.9945   23.1069 C   0  0  0  0  0  0  0  0  0  0  0  0
   11.1863    4.3040   23.8442 C   0  0  0  0  0  0  0  0  0  0  0  0
   12.2851    5.3573   23.6538 C   0  0  0  0  0  0  0  0  0  0  0  0
   12.2373    5.9796   22.2561 C   0  0  0  0  0  0  0  0  0  0  0  0
   13.6564    4.7352   23.9535 C   0  0  0  0  0  0  0  0  0  0  0  0
   13.8786    3.4129   23.2105 C   0  0  0  0  0  0  0  0  0  0  0  0
  1  2  1  0
  2  3  1  0
  3  4  2  0
  4  5  1  0
  5  6  1  0
  6  7  1  0
  7  8  1  0
  8  9  1  0
  9 10  1  6
  9 11  1  0
 11 12  1  0
 12 13  1  0
 13 14  1  0
 14 15  2  0
 15 16  1  0
 16 17  1  0
 17 18  1  0
 17 19  1  0
 16 20  2  0
 20 21  1  0
 21 22  2  0
 13 23  1  0
  5 24  2  0
 24 25  1  0
 25 26  2  0
 26 27  1  0
 27 28  1  0
 28 29  1  0
 29 30  1  0
 30 31  1  0
 31 32  1  0
 32 33  1  0
 33 34  1  0
 33 35  1  0
 35 36  1  0
 26  3  1  0
 36 30  1  0
 23  9  1  0
 22 14  1  0
M  END
