
     RDKit          3D

 35 39  0  0  0  0  0  0  0  0999 V2000
    7.6386   -3.4390   25.4788 O   0  0  0  0  0  0  0  0  0  0  0  0
    8.8836   -3.8538   24.9072 C   0  0  2  0  0  0  0  0  0  0  0  0
    8.7211   -3.9588   23.3651 C   0  0  0  0  0  0  0  0  0  0  0  0
    7.7908   -2.9079   22.8743 N   0  0  0  0  0  0  0  0  0  0  0  0
    8.5410   -1.7169   22.4013 C   0  0  0  0  0  0  0  0  0  0  0  0
    7.6072   -0.6002   21.8784 C   0  0  0  0  0  0  0  0  0  0  0  0
    6.7402   -1.1064   20.7934 N   0  0  0  0  0  0  0  0  0  0  0  0
    5.9619   -0.1765   20.0851 C   0  0  0  0  0  0  0  0  0  0  0  0
    6.2124    0.1919   18.7541 C   0  0  0  0  0  0  0  0  0  0  0  0
    5.4130    1.1297   18.0884 C   0  0  0  0  0  0  0  0  0  0  0  0
    4.3324    1.7155   18.7390 C   0  0  0  0  0  0  0  0  0  0  0  0
    4.0440    1.3516   20.0486 C   0  0  0  0  0  0  0  0  0  0  0  0
    4.8463    0.4127   20.7061 C   0  0  0  0  0  0  0  0  0  0  0  0
    6.0011   -2.3294   21.1897 C   0  0  0  0  0  0  0  0  0  0  0  0
    6.9736   -3.4020   21.7383 C   0  0  0  0  0  0  0  0  0  0  0  0
    9.3399   -5.1544   25.5680 C   0  0  0  0  0  0  0  0  0  0  0  0
   10.8661   -5.0739   25.5881 C   0  0  0  0  0  0  0  0  0  0  0  0
   11.2163   -3.7333   25.0989 N   0  0  0  0  0  0  0  0  0  0  0  0
   12.4086   -3.1998   25.7629 C   0  0  0  0  0  0  0  0  0  0  0  0
   12.9403   -1.9325   25.1280 C   0  0  0  0  0  0  0  0  0  0  0  0
   12.9802   -0.7310   25.8462 C   0  0  0  0  0  0  0  0  0  0  0  0
   13.4389    0.4410   25.2396 C   0  0  0  0  0  0  0  0  0  0  0  0
   13.8512    0.4383   23.9053 C   0  0  0  0  0  0  0  0  0  0  0  0
   14.2674    1.6505   23.4258 O   0  0  0  0  0  0  0  0  0  0  0  0
   13.3362    2.7365   23.4881 C   0  0  0  0  0  0  0  0  0  0  0  0
   13.1860    3.4019   22.1088 C   0  0  0  0  0  0  0  0  0  0  0  0
   12.2502    4.5380   22.0931 N   0  0  0  0  0  0  0  0  0  0  0  0
   11.2887    4.4932   23.2154 C   0  0  0  0  0  0  0  0  0  0  0  0
   10.6612    5.8708   23.4786 C   0  0  0  0  0  0  0  0  0  0  0  0
   11.6221    6.8561   23.8806 O   0  0  0  0  0  0  0  0  0  0  0  0
   12.9460    6.5756   23.4136 C   0  0  0  0  0  0  0  0  0  0  0  0
   12.9626    5.8352   22.0672 C   0  0  0  0  0  0  0  0  0  0  0  0
   13.8337   -0.7596   23.1910 C   0  0  0  0  0  0  0  0  0  0  0  0
   13.3764   -1.9351   23.7963 C   0  0  0  0  0  0  0  0  0  0  0  0
   10.0198   -2.9066   25.3023 C   0  0  0  0  0  0  0  0  0  0  0  0
  2  1  1  1
  2  3  1  0
  3  4  1  0
  4  5  1  0
  5  6  1  0
  6  7  1  0
  7  8  1  0
  8  9  2  0
  9 10  1  0
 10 11  2  0
 11 12  1  0
 12 13  2  0
  7 14  1  0
 14 15  1  0
  2 16  1  0
 16 17  1  0
 17 18  1  0
 18 19  1  0
 19 20  1  0
 20 21  2  0
 21 22  1  0
 22 23  2  0
 23 24  1  0
 24 25  1  0
 25 26  1  0
 26 27  1  0
 27 28  1  0
 28 29  1  0
 29 30  1  0
 30 31  1  0
 31 32  1  0
 23 33  1  0
 33 34  2  0
 18 35  1  0
 35  2  1  0
 15  4  1  0
 34 20  1  0
 13  8  1  0
 32 27  1  0
M  END
