
     RDKit          3D

 36 39  0  0  0  0  0  0  0  0999 V2000
    6.1775   -5.8464   21.1951 C   0  0  0  0  0  0  0  0  0  0  0  0
    6.4983   -4.5075   21.5514 O   0  0  0  0  0  0  0  0  0  0  0  0
    7.2744   -4.3340   22.6640 C   0  0  0  0  0  0  0  0  0  0  0  0
    7.5409   -3.0017   22.9880 C   0  0  0  0  0  0  0  0  0  0  0  0
    8.3276   -2.6798   24.0968 C   0  0  0  0  0  0  0  0  0  0  0  0
    8.8630   -3.6932   24.9025 C   0  0  0  0  0  0  0  0  0  0  0  0
    9.7106   -3.3480   26.1122 C   0  0  0  0  0  0  0  0  0  0  0  0
   11.1590   -3.2484   25.8265 N   0  0  0  0  0  0  0  0  0  0  0  0
   11.7607   -4.5948   25.8132 C   0  0  0  0  0  0  0  0  0  0  0  0
   11.4103   -2.6054   24.5038 C   0  0  0  0  0  0  0  0  0  0  0  0
   12.6742   -1.7064   24.4691 C   0  0  2  0  0  0  0  0  0  0  0  0
   13.8279   -2.5556   24.3467 O   0  0  0  0  0  0  0  0  0  0  0  0
   12.8577   -0.8085   25.7018 C   0  0  0  0  0  0  0  0  0  0  0  0
   13.2911    0.5351   25.1293 C   0  0  0  0  0  0  0  0  0  0  0  0
   12.4740    0.5971   23.9257 N   0  0  0  0  0  0  0  0  0  0  0  0
   12.6643    1.7634   23.0706 C   0  0  0  0  0  0  0  0  0  0  0  0
   11.6642    2.8941   23.1855 C   0  0  0  0  0  0  0  0  0  0  0  0
   10.2959    2.6553   22.9933 C   0  0  0  0  0  0  0  0  0  0  0  0
    9.3712    3.6881   23.1353 C   0  0  0  0  0  0  0  0  0  0  0  0
    9.8125    4.9689   23.4624 C   0  0  0  0  0  0  0  0  0  0  0  0
    8.8664    5.9411   23.6634 O   0  0  0  0  0  0  0  0  0  0  0  0
    8.6516    6.6924   22.4598 C   0  0  0  0  0  0  0  0  0  0  0  0
    7.5932    5.9785   21.5993 C   0  0  0  0  0  0  0  0  0  0  0  0
    6.2637    6.6307   21.5600 N   0  0  0  0  0  0  0  0  0  0  0  0
    5.7399    6.9050   22.9183 C   0  0  0  0  0  0  0  0  0  0  0  0
    4.4246    7.7015   22.8732 C   0  0  0  0  0  0  0  0  0  0  0  0
    4.5767    8.9325   22.1566 O   0  0  0  0  0  0  0  0  0  0  0  0
    5.0192    8.6643   20.8202 C   0  0  0  0  0  0  0  0  0  0  0  0
    6.3581    7.9126   20.8235 C   0  0  0  0  0  0  0  0  0  0  0  0
   11.1717    5.2341   23.6797 C   0  0  0  0  0  0  0  0  0  0  0  0
   11.4914    6.5220   24.0235 O   0  0  0  0  0  0  0  0  0  0  0  0
   12.7788    6.9889   23.6410 C   0  0  0  0  0  0  0  0  0  0  0  0
   12.0913    4.1918   23.5263 C   0  0  0  0  0  0  0  0  0  0  0  0
   12.6355   -0.7089   23.2848 C   0  0  0  0  0  0  0  0  0  0  0  0
    8.5813   -5.0288   24.5811 C   0  0  0  0  0  0  0  0  0  0  0  0
    7.7961   -5.3471   23.4672 C   0  0  0  0  0  0  0  0  0  0  0  0
  1  2  1  0
  2  3  1  0
  3  4  2  0
  4  5  1  0
  5  6  2  0
  6  7  1  0
  7  8  1  0
  8  9  1  0
  8 10  1  0
 10 11  1  0
 11 12  1  6
 11 13  1  0
 13 14  1  0
 14 15  1  0
 15 16  1  0
 16 17  1  0
 17 18  2  0
 18 19  1  0
 19 20  2  0
 20 21  1  0
 21 22  1  0
 22 23  1  0
 23 24  1  0
 24 25  1  0
 25 26  1  0
 26 27  1  0
 27 28  1  0
 28 29  1  0
 20 30  1  0
 30 31  1  0
 31 32  1  0
 30 33  2  0
 15 34  1  0
  6 35  1  0
 35 36  2  0
 36  3  1  0
 34 11  1  0
 33 17  1  0
 29 24  1  0
M  END
