
     RDKit          3D

 34 37  0  0  0  0  0  0  0  0999 V2000
   10.3361   -1.5240   22.2591 C   0  0  0  0  0  0  0  0  0  0  0  0
   11.7521   -1.6582   22.2991 O   0  0  0  0  0  0  0  0  0  0  0  0
   12.2803   -2.1324   23.4746 C   0  0  0  0  0  0  0  0  0  0  0  0
   11.6226   -3.0469   24.3047 C   0  0  0  0  0  0  0  0  0  0  0  0
   12.2230   -3.5034   25.4874 C   0  0  0  0  0  0  0  0  0  0  0  0
   11.5039   -4.4792   26.3911 C   0  0  0  0  0  0  0  0  0  0  0  0
   10.8121   -5.5409   25.6509 N   0  0  0  0  0  0  0  0  0  0  0  0
    9.5506   -5.9542   26.2783 C   0  0  0  0  0  0  0  0  0  0  0  0
    8.2812   -5.2475   25.7684 C   0  0  1  0  0  0  0  0  0  0  0  0
    7.1491   -5.9048   26.3797 O   0  0  0  0  0  0  0  0  0  0  0  0
    8.1741   -3.7506   26.0593 C   0  0  0  0  0  0  0  0  0  0  0  0
    7.0830   -3.2729   25.0914 C   0  0  0  0  0  0  0  0  0  0  0  0
    7.0830   -4.2688   24.0133 N   0  0  0  0  0  0  0  0  0  0  0  0
    6.6249   -3.8994   22.7674 C   0  0  0  0  0  0  0  0  0  0  0  0
    6.3911   -2.5754   22.4359 C   0  0  0  0  0  0  0  0  0  0  0  0
    5.9526   -2.2899   21.1535 C   0  0  0  0  0  0  0  0  0  0  0  0
    5.6641   -0.8749   20.7533 C   0  0  0  0  0  0  0  0  0  0  0  0
    5.7531   -3.2470   20.2323 N   0  0  0  0  0  0  0  0  0  0  0  0
    6.0155   -4.4958   20.6343 C   0  0  0  0  0  0  0  0  0  0  0  0
    6.4434   -4.8663   21.8495 N   0  0  0  0  0  0  0  0  0  0  0  0
    8.1214   -5.2801   24.2355 C   0  0  0  0  0  0  0  0  0  0  0  0
   13.4980   -3.0300   25.8258 C   0  0  0  0  0  0  0  0  0  0  0  0
   14.1717   -2.1353   24.9894 C   0  0  0  0  0  0  0  0  0  0  0  0
   13.5759   -1.6956   23.8042 C   0  0  0  0  0  0  0  0  0  0  0  0
   14.1579   -0.8111   22.9337 O   0  0  0  0  0  0  0  0  0  0  0  0
   14.1476    0.5698   23.3003 C   0  0  0  0  0  0  0  0  0  0  0  0
   12.7604    1.1719   22.9945 C   0  0  0  0  0  0  0  0  0  0  0  0
   12.5066    2.5808   23.3550 N   0  0  0  0  0  0  0  0  0  0  0  0
   11.1951    3.0592   22.9109 C   0  0  0  0  0  0  0  0  0  0  0  0
   10.9077    4.4500   23.4838 C   0  0  0  0  0  0  0  0  0  0  0  0
   12.0079    5.4481   23.1045 C   0  0  0  0  0  0  0  0  0  0  0  0
   11.7702    6.8033   23.7647 C   0  0  0  0  0  0  0  0  0  0  0  0
   13.3798    4.8822   23.4900 C   0  0  0  0  0  0  0  0  0  0  0  0
   13.5822    3.4781   22.9148 C   0  0  0  0  0  0  0  0  0  0  0  0
  1  2  1  0
  2  3  1  0
  3  4  2  0
  4  5  1  0
  5  6  1  0
  6  7  1  0
  7  8  1  0
  8  9  1  0
  9 10  1  1
  9 11  1  0
 11 12  1  0
 12 13  1  0
 13 14  1  0
 14 15  2  0
 15 16  1  0
 16 17  1  0
 16 18  2  0
 18 19  1  0
 19 20  2  0
 13 21  1  0
  5 22  2  0
 22 23  1  0
 23 24  2  0
 24 25  1  0
 25 26  1  0
 26 27  1  0
 27 28  1  0
 28 29  1  0
 29 30  1  0
 30 31  1  0
 31 32  1  0
 31 33  1  0
 33 34  1  0
 24  3  1  0
 34 28  1  0
 21  9  1  0
 20 14  1  0
M  END
