
     RDKit          3D

 33 37  0  0  0  0  0  0  0  0999 V2000
   10.2323    6.0819   23.3556 C   0  0  0  0  0  0  0  0  0  0  0  0
   11.7104    5.7796   23.1294 C   0  0  0  0  0  0  0  0  0  0  0  0
   11.9253    4.5877   22.2935 N   0  0  0  0  0  0  0  0  0  0  0  0
   13.3483    4.1839   22.3090 C   0  0  0  0  0  0  0  0  0  0  0  0
   13.8132    3.4888   23.6128 C   0  0  0  0  0  0  0  0  0  0  0  0
   12.9902    2.3344   24.0300 N   0  0  0  0  0  0  0  0  0  0  0  0
   13.2600    1.1639   23.1747 C   0  0  0  0  0  0  0  0  0  0  0  0
   12.5306   -0.0883   23.6155 C   0  0  0  0  0  0  0  0  0  0  0  0
   13.0450   -0.8956   24.6368 C   0  0  0  0  0  0  0  0  0  0  0  0
   12.3732   -2.0554   25.0375 C   0  0  0  0  0  0  0  0  0  0  0  0
   11.1822   -2.4582   24.4123 C   0  0  0  0  0  0  0  0  0  0  0  0
   10.4312   -3.6928   24.8839 C   0  0  2  0  0  0  0  0  0  0  0  0
    8.8956   -3.5275   25.0538 C   0  0  0  0  0  0  0  0  0  0  0  0
    8.6392   -4.0390   26.4607 C   0  0  2  0  0  0  0  0  0  0  0  0
    9.7917   -4.9817   26.6889 C   0  0  1  0  0  0  0  0  0  0  0  0
   10.9270   -4.2401   26.1788 N   0  0  0  0  0  0  0  0  0  0  0  0
    9.9584   -5.2325   28.0992 N   0  0  0  0  0  0  0  0  0  0  0  0
    8.6794   -5.2892   28.7964 C   0  0  0  0  0  0  0  0  0  0  0  0
    7.6205   -5.7219   27.9048 N   0  0  0  0  0  0  0  0  0  0  0  0
    7.3463   -4.7563   26.8422 C   0  0  2  0  0  0  0  0  0  0  0  0
    6.8166   -5.5822   25.7796 N   0  0  0  0  0  0  0  0  0  0  0  0
    5.5637   -5.1165   25.1640 C   0  0  2  0  0  0  0  0  0  0  0  0
    4.3962   -6.0491   25.5165 C   0  0  0  0  0  0  0  0  0  0  0  0
    5.7108   -4.7708   23.6875 C   0  0  0  0  0  0  0  0  0  0  0  0
    5.7451   -5.8151   22.7453 C   0  0  0  0  0  0  0  0  0  0  0  0
    5.8469   -5.5488   21.3789 C   0  0  0  0  0  0  0  0  0  0  0  0
    5.9155   -4.2332   20.9299 C   0  0  0  0  0  0  0  0  0  0  0  0
    5.8819   -3.1857   21.8465 C   0  0  0  0  0  0  0  0  0  0  0  0
    5.7789   -3.4511   23.2148 C   0  0  0  0  0  0  0  0  0  0  0  0
   10.6608   -1.6256   23.4079 C   0  0  0  0  0  0  0  0  0  0  0  0
   11.3296   -0.4652   23.0054 C   0  0  0  0  0  0  0  0  0  0  0  0
   11.5646    2.7306   24.0093 C   0  0  0  0  0  0  0  0  0  0  0  0
   11.0996    3.4326   22.7090 C   0  0  0  0  0  0  0  0  0  0  0  0
  1  2  1  0
  2  3  1  0
  3  4  1  0
  4  5  1  0
  5  6  1  0
  6  7  1  0
  7  8  1  0
  8  9  2  0
  9 10  1  0
 10 11  2  0
 12 11  1  1
 12 13  1  0
 14 13  1  6
 14 15  1  0
 15 16  1  1
 15 17  1  0
 17 18  1  0
 18 19  1  0
 19 20  1  0
 20 21  1  6
 21 22  1  0
 22 23  1  6
 22 24  1  0
 24 25  2  0
 25 26  1  0
 26 27  2  0
 27 28  1  0
 28 29  2  0
 11 30  1  0
 30 31  2  0
  6 32  1  0
 32 33  1  0
 33  3  1  0
 31  8  1  0
 16 12  1  0
 29 24  1  0
 20 14  1  0
M  END
