
     RDKit          3D

 32 34  0  0  0  0  0  0  0  0999 V2000
    6.3522   -1.1913   18.2480 C   0  0  0  0  0  0  0  0  0  0  0  0
    6.8387   -0.1745   19.1151 O   0  0  0  0  0  0  0  0  0  0  0  0
    5.9562    0.8135   19.4735 C   0  0  0  0  0  0  0  0  0  0  0  0
    4.7386    1.0662   18.8361 C   0  0  0  0  0  0  0  0  0  0  0  0
    3.8809    2.0637   19.3131 C   0  0  0  0  0  0  0  0  0  0  0  0
    4.2282    2.8460   20.4219 C   0  0  0  0  0  0  0  0  0  0  0  0
    3.3252    3.9081   21.0157 C   0  0  0  0  0  0  0  0  0  0  0  0
    2.8446    4.8995   20.0448 N   0  0  0  0  0  0  0  0  0  0  0  0
    1.4954    4.5676   19.5809 C   0  0  0  0  0  0  0  0  0  0  0  0
    0.7487    5.8007   19.0604 C   0  0  0  0  0  0  0  0  0  0  0  0
    1.5614    6.6251   18.0542 C   0  0  0  0  0  0  0  0  0  0  0  0
    1.9147    5.8595   16.8450 N   0  0  0  0  0  0  0  0  0  0  0  0
    0.6869    5.4318   16.1380 C   0  0  0  0  0  0  0  0  0  0  0  0
    1.0134    4.6724   14.8448 C   0  0  0  0  0  0  0  0  0  0  0  0
    1.8065    5.4753   13.9612 O   0  0  0  0  0  0  0  0  0  0  0  0
    3.0263    5.8590   14.6127 C   0  0  0  0  0  0  0  0  0  0  0  0
    2.7482    6.6430   15.9062 C   0  0  0  0  0  0  0  0  0  0  0  0
    5.4641    2.6021   21.0439 C   0  0  0  0  0  0  0  0  0  0  0  0
    6.3076    1.5792   20.5966 C   0  0  0  0  0  0  0  0  0  0  0  0
    7.5142    1.3031   21.1954 O   0  0  0  0  0  0  0  0  0  0  0  0
    7.4969    0.2386   22.1643 C   0  0  0  0  0  0  0  0  0  0  0  0
    8.8276    0.1591   22.9323 C   0  0  1  0  0  0  0  0  0  0  0  0
    8.6037    0.3140   24.3385 O   0  0  0  0  0  0  0  0  0  0  0  0
    9.6054   -1.1380   22.6041 C   0  0  0  0  0  0  0  0  0  0  0  0
   10.8413   -1.3677   23.3961 N   0  0  0  0  0  0  0  0  0  0  0  0
   10.9653   -2.7943   23.7334 C   0  0  0  0  0  0  0  0  0  0  0  0
   11.6320   -3.0460   25.0905 C   0  0  0  0  0  0  0  0  0  0  0  0
   13.0948   -2.6249   25.2198 C   0  0  0  0  0  0  0  0  0  0  0  0
   13.2919   -1.1445   25.5519 C   0  0  0  0  0  0  0  0  0  0  0  0
   13.8303   -0.3182   24.3872 C   0  0  0  0  0  0  0  0  0  0  0  0
   12.7832    0.1939   23.4006 C   0  0  0  0  0  0  0  0  0  0  0  0
   12.0211   -0.8885   22.6393 C   0  0  0  0  0  0  0  0  0  0  0  0
  1  2  1  0
  2  3  1  0
  3  4  2  0
  4  5  1  0
  5  6  2  0
  6  7  1  0
  7  8  1  0
  8  9  1  0
  9 10  1  0
 10 11  1  0
 11 12  1  0
 12 13  1  0
 13 14  1  0
 14 15  1  0
 15 16  1  0
 16 17  1  0
  6 18  1  0
 18 19  2  0
 19 20  1  0
 20 21  1  0
 21 22  1  0
 22 23  1  1
 22 24  1  0
 24 25  1  0
 25 26  1  0
 26 27  1  0
 27 28  1  0
 28 29  1  0
 29 30  1  0
 30 31  1  0
 31 32  1  0
 19  3  1  0
 32 25  1  0
 17 12  1  0
M  END
