
     RDKit          3D

 32 34  0  0  0  0  0  0  0  0999 V2000
    6.0494   -0.2337   18.0942 C   0  0  0  0  0  0  0  0  0  0  0  0
    6.1849   -0.2199   19.5095 O   0  0  0  0  0  0  0  0  0  0  0  0
    5.9723    0.9800   20.1383 C   0  0  0  0  0  0  0  0  0  0  0  0
    4.8584    1.7992   19.9504 C   0  0  0  0  0  0  0  0  0  0  0  0
    4.7399    3.0033   20.6533 C   0  0  0  0  0  0  0  0  0  0  0  0
    5.7296    3.4075   21.5610 C   0  0  0  0  0  0  0  0  0  0  0  0
    5.6248    4.7347   22.2706 C   0  0  0  0  0  0  0  0  0  0  0  0
    6.1189    5.8027   21.4067 N   0  0  0  0  0  0  0  0  0  0  0  0
    6.2567    7.0780   22.1245 C   0  0  0  0  0  0  0  0  0  0  0  0
    6.1507    8.2582   21.1238 C   0  0  0  0  0  0  0  0  0  0  0  0
    4.8501    8.2769   20.4135 N   0  0  0  0  0  0  0  0  0  0  0  0
    3.6930    8.3393   21.3332 C   0  0  0  0  0  0  0  0  0  0  0  0
    3.4709    9.7102   22.0168 C   0  0  0  0  0  0  0  0  0  0  0  0
    3.3882   10.8134   21.0433 N   0  0  0  0  0  0  0  0  0  0  0  0
    3.2575   12.1012   21.7169 C   0  0  0  0  0  0  0  0  0  0  0  0
    4.5618   10.7964   20.1506 C   0  0  0  0  0  0  0  0  0  0  0  0
    4.7616    9.4191   19.4770 C   0  0  0  0  0  0  0  0  0  0  0  0
    6.8475    2.5905   21.7453 C   0  0  0  0  0  0  0  0  0  0  0  0
    6.9496    1.3796   21.0591 C   0  0  0  0  0  0  0  0  0  0  0  0
    8.0707    0.6100   21.2622 O   0  0  0  0  0  0  0  0  0  0  0  0
    8.0634    0.1020   22.6110 C   0  0  0  0  0  0  0  0  0  0  0  0
    9.2642   -0.8316   22.7585 C   0  0  1  0  0  0  0  0  0  0  0  0
    8.9505   -2.1198   22.2043 O   0  0  0  0  0  0  0  0  0  0  0  0
   10.5752   -0.2726   22.1514 C   0  0  0  0  0  0  0  0  0  0  0  0
   11.8565   -0.4566   22.8510 N   0  0  0  0  0  0  0  0  0  0  0  0
   12.6799   -1.5434   22.3398 C   0  0  0  0  0  0  0  0  0  0  0  0
   13.8833   -1.9279   23.2175 C   0  0  0  0  0  0  0  0  0  0  0  0
   13.5789   -2.1328   24.7046 C   0  0  0  0  0  0  0  0  0  0  0  0
   13.6961   -0.8703   25.5723 C   0  0  0  0  0  0  0  0  0  0  0  0
   12.4232   -0.0280   25.6686 C   0  0  0  0  0  0  0  0  0  0  0  0
   12.3013    1.1209   24.6601 C   0  0  0  0  0  0  0  0  0  0  0  0
   12.5671    0.7631   23.1968 C   0  0  0  0  0  0  0  0  0  0  0  0
  1  2  1  0
  2  3  1  0
  3  4  2  0
  4  5  1  0
  5  6  2  0
  6  7  1  0
  7  8  1  0
  8  9  1  0
  9 10  1  0
 10 11  1  0
 11 12  1  0
 12 13  1  0
 13 14  1  0
 14 15  1  0
 14 16  1  0
 16 17  1  0
  6 18  1  0
 18 19  2  0
 19 20  1  0
 20 21  1  0
 21 22  1  0
 22 23  1  6
 22 24  1  0
 24 25  1  0
 25 26  1  0
 26 27  1  0
 27 28  1  0
 28 29  1  0
 29 30  1  0
 30 31  1  0
 31 32  1  0
 19  3  1  0
 32 25  1  0
 17 11  1  0
M  END
