
     RDKit          3D

 34 36  0  0  0  0  0  0  0  0999 V2000
    4.9662    2.4508   20.2711 C   0  0  0  0  0  0  0  0  0  0  0  0
    5.1430    1.2969   19.3180 C   0  0  0  0  0  0  0  0  0  0  0  0
    5.0822    1.4634   18.1013 O   0  0  0  0  0  0  0  0  0  0  0  0
    5.3928   -0.0666   19.8735 C   0  0  0  0  0  0  0  0  0  0  0  0
    5.4372   -1.1528   18.9906 C   0  0  0  0  0  0  0  0  0  0  0  0
    5.6583   -2.4521   19.4661 C   0  0  0  0  0  0  0  0  0  0  0  0
    5.8323   -2.6796   20.8290 C   0  0  0  0  0  0  0  0  0  0  0  0
    6.0630   -3.8869   21.4230 O   0  0  0  0  0  0  0  0  0  0  0  0
    7.1331   -3.9931   22.3678 C   0  0  0  0  0  0  0  0  0  0  0  0
    7.2805   -5.4074   22.9525 C   0  0  1  0  0  0  0  0  0  0  0  0
    7.1571   -6.4014   21.9254 O   0  0  0  0  0  0  0  0  0  0  0  0
    8.6195   -5.6152   23.6949 C   0  0  0  0  0  0  0  0  0  0  0  0
    8.4415   -5.6826   25.1723 N   0  0  0  0  0  0  0  0  0  0  0  0
    9.5937   -6.3924   25.7892 C   0  0  0  0  0  0  0  0  0  0  0  0
   10.7907   -5.5083   26.2463 C   0  0  0  0  0  0  0  0  0  0  0  0
   10.8758   -4.2341   25.5177 N   0  0  0  0  0  0  0  0  0  0  0  0
   12.0726   -3.4602   25.8929 C   0  0  0  0  0  0  0  0  0  0  0  0
   12.6883   -2.6767   24.7051 C   0  0  2  0  0  0  0  0  0  0  0  0
   14.1212   -2.7714   24.7200 O   0  0  0  0  0  0  0  0  0  0  0  0
   12.2773   -1.1948   24.7093 C   0  0  0  0  0  0  0  0  0  0  0  0
   12.4498   -0.6398   23.4018 O   0  0  0  0  0  0  0  0  0  0  0  0
   12.3374    0.7164   23.2729 C   0  0  0  0  0  0  0  0  0  0  0  0
   11.1484    1.4355   23.1548 C   0  0  0  0  0  0  0  0  0  0  0  0
   11.1751    2.8314   23.0216 C   0  0  0  0  0  0  0  0  0  0  0  0
   12.3947    3.5187   23.0083 C   0  0  0  0  0  0  0  0  0  0  0  0
   12.4742    5.0035   22.8688 C   0  0  0  0  0  0  0  0  0  0  0  0
   11.2758    5.8386   23.2384 C   0  0  0  0  0  0  0  0  0  0  0  0
   13.5081    5.5263   22.4561 O   0  0  0  0  0  0  0  0  0  0  0  0
   13.5850    2.7941   23.1284 C   0  0  0  0  0  0  0  0  0  0  0  0
   13.5531    1.4029   23.2576 C   0  0  0  0  0  0  0  0  0  0  0  0
    9.6234   -3.4681   25.6800 C   0  0  0  0  0  0  0  0  0  0  0  0
    8.3483   -4.3466   25.7964 C   0  0  0  0  0  0  0  0  0  0  0  0
    5.8072   -1.5928   21.7079 C   0  0  0  0  0  0  0  0  0  0  0  0
    5.5843   -0.2928   21.2400 C   0  0  0  0  0  0  0  0  0  0  0  0
  1  2  1  0
  2  3  2  0
  2  4  1  0
  4  5  2  0
  5  6  1  0
  6  7  2  0
  7  8  1  0
  8  9  1  0
  9 10  1  0
 10 11  1  6
 10 12  1  0
 12 13  1  0
 13 14  1  0
 14 15  1  0
 15 16  1  0
 16 17  1  0
 17 18  1  0
 18 19  1  1
 18 20  1  0
 20 21  1  0
 21 22  1  0
 22 23  2  0
 23 24  1  0
 24 25  2  0
 25 26  1  0
 26 27  1  0
 26 28  2  0
 25 29  1  0
 29 30  2  0
 16 31  1  0
 31 32  1  0
  7 33  1  0
 33 34  2  0
 34  4  1  0
 32 13  1  0
 30 22  1  0
M  END
