
     RDKit          3D

 32 35  0  0  0  0  0  0  0  0999 V2000
    8.7796   -4.9238   28.8083 C   0  0  0  0  0  0  0  0  0  0  0  0
    9.0838   -4.5881   27.3474 C   0  0  2  0  0  0  0  0  0  0  0  0
    7.8968   -5.0158   26.4393 C   0  0  0  0  0  0  0  0  0  0  0  0
    8.1711   -4.7952   25.0033 N   0  0  0  0  0  0  0  0  0  0  0  0
    7.0745   -5.2594   24.1434 C   0  0  0  0  0  0  0  0  0  0  0  0
    7.0048   -4.5674   22.7756 C   0  0  0  0  0  0  0  0  0  0  0  0
    6.4829   -3.1315   22.8629 C   0  0  0  0  0  0  0  0  0  0  0  0
    6.2446   -2.5679   21.5057 C   0  0  0  0  0  0  0  0  0  0  0  0
    5.6028   -3.1531   20.5155 N   0  0  0  0  0  0  0  0  0  0  0  0
    5.6078   -2.2991   19.4389 N   0  0  0  0  0  0  0  0  0  0  0  0
    6.2597   -1.2065   19.7813 C   0  0  0  0  0  0  0  0  0  0  0  0
    6.5192   -0.0168   18.9220 C   0  0  0  0  0  0  0  0  0  0  0  0
    5.3467    0.9701   18.9225 C   0  0  0  0  0  0  0  0  0  0  0  0
    5.1921    1.7539   20.2354 C   0  0  0  0  0  0  0  0  0  0  0  0
    4.4501    3.0086   20.0703 N   0  0  0  0  0  0  0  0  0  0  0  0
    3.0681    2.8026   19.5844 C   0  0  0  0  0  0  0  0  0  0  0  0
    2.0742    3.9360   19.9849 C   0  0  2  0  0  0  0  0  0  0  0  0
    0.9110    4.0101   18.9985 C   0  0  0  0  0  0  0  0  0  0  0  0
    2.7333    5.2537   20.0688 N   0  0  0  0  0  0  0  0  0  0  0  0
    3.8233    5.2088   21.0760 C   0  0  1  0  0  0  0  0  0  0  0  0
    3.3347    5.8163   22.3897 C   0  0  0  0  0  0  0  0  0  0  0  0
    4.4403    3.7988   21.3127 C   0  0  0  0  0  0  0  0  0  0  0  0
    6.6797   -1.3368   21.0825 N   0  0  0  0  0  0  0  0  0  0  0  0
    7.4701   -0.3505   21.8719 N   0  0  0  0  0  0  0  0  0  0  0  0
    8.8199   -0.1321   21.7484 C   0  0  0  0  0  0  0  0  0  0  0  0
    9.1779    0.8478   22.6488 C   0  0  0  0  0  0  0  0  0  0  0  0
    8.0047    1.2346   23.3407 C   0  0  0  0  0  0  0  0  0  0  0  0
    6.9654    0.4798   22.8413 C   0  0  0  0  0  0  0  0  0  0  0  0
    9.4348   -5.4692   24.6386 C   0  0  0  0  0  0  0  0  0  0  0  0
   10.6346   -5.0481   25.5293 C   0  0  1  0  0  0  0  0  0  0  0  0
   11.0913   -3.6159   25.2334 C   0  0  0  0  0  0  0  0  0  0  0  0
   10.3600   -5.2340   26.9703 N   0  0  0  0  0  0  0  0  0  0  0  0
  2  1  1  1
  2  3  1  0
  3  4  1  0
  4  5  1  0
  5  6  1  0
  6  7  1  0
  7  8  1  0
  8  9  2  0
  9 10  1  0
 10 11  2  0
 11 12  1  0
 12 13  1  0
 13 14  1  0
 14 15  1  0
 15 16  1  0
 16 17  1  0
 17 18  1  6
 17 19  1  0
 19 20  1  0
 20 21  1  1
 20 22  1  0
 11 23  1  0
 23 24  1  0
 24 25  1  0
 25 26  2  0
 26 27  1  0
 27 28  2  0
  4 29  1  0
 29 30  1  0
 30 31  1  1
 30 32  1  0
 32  2  1  0
 23  8  1  0
 28 24  1  0
 22 15  1  0
M  END
