
     RDKit          3D

 31 33  0  0  0  0  0  0  0  0999 V2000
    4.3623    3.2956   20.8834 C   0  0  0  0  0  0  0  0  0  0  0  0
    4.6207    2.5356   19.6666 N   0  0  0  0  0  0  0  0  0  0  0  0
    3.4010    2.2773   18.9139 C   0  0  0  0  0  0  0  0  0  0  0  0
    5.4760    1.3620   19.8628 C   0  0  0  0  0  0  0  0  0  0  0  0
    5.8478    0.4717   18.6648 C   0  0  0  0  0  0  0  0  0  0  0  0
    6.3724   -0.9222   18.9833 C   0  0  0  0  0  0  0  0  0  0  0  0
    7.5542   -0.9103   19.8224 N   0  0  0  0  0  0  0  0  0  0  0  0
    7.4212   -0.8251   21.1975 C   0  0  0  0  0  0  0  0  0  0  0  0
    6.3344   -0.7286   21.7565 O   0  0  0  0  0  0  0  0  0  0  0  0
    8.7525   -0.8238   21.9375 C   0  0  2  0  0  0  0  0  0  0  0  0
    8.7461   -1.8079   23.1102 C   0  0  0  0  0  0  0  0  0  0  0  0
   10.0556   -1.7004   23.9053 C   0  0  2  0  0  0  0  0  0  0  0  0
   10.0520   -2.6083   25.1559 C   0  0  0  0  0  0  0  0  0  0  0  0
   10.2955   -4.0307   24.8648 N   0  0  0  0  0  0  0  0  0  0  0  0
    9.0306   -4.8004   24.8489 C   0  0  0  0  0  0  0  0  0  0  0  0
    8.4038   -5.0456   26.2428 C   0  0  0  0  0  0  0  0  0  0  0  0
    9.3464   -5.6899   27.1748 N   0  0  0  0  0  0  0  0  0  0  0  0
    8.7574   -5.8335   28.5026 C   0  0  0  0  0  0  0  0  0  0  0  0
   10.6098   -4.9324   27.2330 C   0  0  0  0  0  0  0  0  0  0  0  0
   11.2108   -4.6803   25.8286 C   0  0  0  0  0  0  0  0  0  0  0  0
   10.2928   -0.2383   24.3282 C   0  0  0  0  0  0  0  0  0  0  0  0
   10.3291    0.6681   23.1636 N   0  0  0  0  0  0  0  0  0  0  0  0
   10.6226    2.0456   23.6170 C   0  0  0  0  0  0  0  0  0  0  0  0
   12.0309    2.5268   23.2278 C   0  0  0  0  0  0  0  0  0  0  0  0
   12.1421    4.0318   23.2996 C   0  0  0  0  0  0  0  0  0  0  0  0
   11.3603    4.7584   24.2082 C   0  0  0  0  0  0  0  0  0  0  0  0
   11.4779    6.1466   24.2885 C   0  0  0  0  0  0  0  0  0  0  0  0
   12.3797    6.8199   23.4660 C   0  0  0  0  0  0  0  0  0  0  0  0
   13.1660    6.1054   22.5633 C   0  0  0  0  0  0  0  0  0  0  0  0
   13.0493    4.7172   22.4804 C   0  0  0  0  0  0  0  0  0  0  0  0
    9.0531    0.6005   22.4253 C   0  0  0  0  0  0  0  0  0  0  0  0
  1  2  1  0
  2  3  1  0
  2  4  1  0
  4  5  1  0
  5  6  1  0
  6  7  1  0
  7  8  1  0
  8  9  2  0
 10  8  1  1
 10 11  1  0
 11 12  1  0
 12 13  1  1
 13 14  1  0
 14 15  1  0
 15 16  1  0
 16 17  1  0
 17 18  1  0
 17 19  1  0
 19 20  1  0
 12 21  1  0
 21 22  1  0
 22 23  1  0
 23 24  1  0
 24 25  1  0
 25 26  2  0
 26 27  1  0
 27 28  2  0
 28 29  1  0
 29 30  2  0
 22 31  1  0
 31 10  1  0
 20 14  1  0
 30 25  1  0
M  END
