
     RDKit          3D

 32 35  0  0  0  0  0  0  0  0999 V2000
    8.7587    1.9526   21.2587 O   0  0  0  0  0  0  0  0  0  0  0  0
    8.8001    1.0985   22.1467 C   0  0  0  0  0  0  0  0  0  0  0  0
    8.1799   -0.2818   21.9407 C   0  0  0  0  0  0  0  0  0  0  0  0
    6.8587   -0.3318   22.6072 N   0  0  0  0  0  0  0  0  0  0  0  0
    5.9111    0.6063   21.9628 C   0  0  0  0  0  0  0  0  0  0  0  0
    5.3542    0.1602   20.5986 C   0  0  2  0  0  0  0  0  0  0  0  0
    6.3654    0.1978   19.4659 C   0  0  0  0  0  0  0  0  0  0  0  0
    5.4661    0.3543   18.2655 C   0  0  0  0  0  0  0  0  0  0  0  0
    4.4030    1.2937   18.7911 C   0  0  0  0  0  0  0  0  0  0  0  0
    4.2931    1.0586   20.2042 O   0  0  0  0  0  0  0  0  0  0  0  0
    6.3510   -1.7134   22.7194 C   0  0  2  0  0  0  0  0  0  0  0  0
    6.5052   -2.3912   24.0935 C   0  0  0  0  0  0  0  0  0  0  0  0
    5.9609   -3.8038   23.9179 C   0  0  0  0  0  0  0  0  0  0  0  0
    6.4526   -4.2995   22.2738 S   0  0  0  0  0  0  0  0  0  0  0  0
    7.6102   -5.1621   22.3770 O   0  0  0  0  0  0  0  0  0  0  0  0
    5.2616   -4.6819   21.5439 O   0  0  0  0  0  0  0  0  0  0  0  0
    6.9781   -2.6873   21.7089 C   0  0  0  0  0  0  0  0  0  0  0  0
    9.4755    1.3222   23.5048 C   0  0  0  0  0  0  0  0  0  0  0  0
   10.9584    1.2451   23.4136 N   0  0  0  0  0  0  0  0  0  0  0  0
   11.5155    0.7241   24.6788 C   0  0  0  0  0  0  0  0  0  0  0  0
   11.8737   -0.7819   24.6235 C   0  0  1  0  0  0  0  0  0  0  0  0
   13.0235   -1.1076   23.6772 C   0  0  0  0  0  0  0  0  0  0  0  0
   14.2291   -1.0276   24.5785 C   0  0  0  0  0  0  0  0  0  0  0  0
   13.6812   -1.5837   25.8726 C   0  0  0  0  0  0  0  0  0  0  0  0
   12.3039   -1.1876   25.9417 O   0  0  0  0  0  0  0  0  0  0  0  0
   11.5570    2.5359   22.9999 C   0  0  1  0  0  0  0  0  0  0  0  0
   11.0757    3.7491   23.8322 C   0  0  0  0  0  0  0  0  0  0  0  0
   11.9037    4.9466   23.3749 C   0  0  0  0  0  0  0  0  0  0  0  0
   13.5172    4.2969   23.0002 S   0  0  0  0  0  0  0  0  0  0  0  0
   14.4368    4.6636   24.0563 O   0  0  0  0  0  0  0  0  0  0  0  0
   13.8023    4.5513   21.6032 O   0  0  0  0  0  0  0  0  0  0  0  0
   13.0843    2.5824   23.1735 C   0  0  0  0  0  0  0  0  0  0  0  0
  1  2  2  0
  2  3  1  0
  3  4  1  0
  4  5  1  0
  6  5  1  1
  6  7  1  0
  7  8  1  0
  8  9  1  0
  9 10  1  0
 11  4  1  1
 11 12  1  0
 12 13  1  0
 13 14  1  0
 14 15  2  0
 14 16  2  0
 14 17  1  0
  2 18  1  0
 18 19  1  0
 19 20  1  0
 21 20  1  1
 21 22  1  0
 22 23  1  0
 23 24  1  0
 24 25  1  0
 26 19  1  1
 26 27  1  0
 27 28  1  0
 28 29  1  0
 29 30  2  0
 29 31  2  0
 29 32  1  0
 10  6  1  0
 17 11  1  0
 25 21  1  0
 32 26  1  0
M  END
