
     RDKit          3D

 28 29  0  0  0  0  0  0  0  0999 V2000
    6.2210   -0.9017   18.4682 C   0  0  0  0  0  0  0  0  0  0  0  0
    5.8809   -1.1374   19.7986 C   0  0  0  0  0  0  0  0  0  0  0  0
    5.0990   -0.2147   20.4963 C   0  0  0  0  0  0  0  0  0  0  0  0
    4.6531    0.9577   19.8698 C   0  0  0  0  0  0  0  0  0  0  0  0
    3.8070    1.9617   20.6201 C   0  0  0  0  0  0  0  0  0  0  0  0
    4.0337    3.3170   20.1142 N   0  0  0  0  0  0  0  0  0  0  0  0
    3.3933    4.3441   20.9431 C   0  0  0  0  0  0  0  0  0  0  0  0
    4.1228    4.5867   22.2687 C   0  0  0  0  0  0  0  0  0  0  0  0
    5.5987    4.9486   22.0693 C   0  0  0  0  0  0  0  0  0  0  0  0
    5.7461    6.2490   21.4151 N   0  0  0  0  0  0  0  0  0  0  0  0
    7.1550    6.6300   21.3031 C   0  0  0  0  0  0  0  0  0  0  0  0
    7.6616    7.1054   22.6675 C   0  0  0  0  0  0  0  0  0  0  0  0
    8.6823    6.1507   23.2977 C   0  0  0  0  0  0  0  0  0  0  0  0
   10.1256    6.6472   23.1656 C   0  0  0  0  0  0  0  0  0  0  0  0
   11.0200    5.6873   22.5161 N   0  0  0  0  0  0  0  0  0  0  0  0
   12.4334    5.9174   22.8206 C   0  0  0  0  0  0  0  0  0  0  0  0
   13.2664    4.6613   22.5442 C   0  0  0  0  0  0  0  0  0  0  0  0
   13.5252    3.7711   23.7653 C   0  0  0  0  0  0  0  0  0  0  0  0
   13.7898    2.3853   23.3751 N   0  0  0  0  0  0  0  0  0  0  0  0
   12.7413    1.4914   23.8675 C   0  0  0  0  0  0  0  0  0  0  0  0
   13.3104    0.1298   24.1893 C   0  0  0  0  0  0  0  0  0  0  0  0
   13.5937   -0.7796   23.1599 C   0  0  0  0  0  0  0  0  0  0  0  0
   14.1311   -2.0346   23.4490 C   0  0  0  0  0  0  0  0  0  0  0  0
   14.3958   -2.3919   24.7692 C   0  0  0  0  0  0  0  0  0  0  0  0
   14.1253   -1.4945   25.8004 C   0  0  0  0  0  0  0  0  0  0  0  0
   13.5873   -0.2384   25.5133 C   0  0  0  0  0  0  0  0  0  0  0  0
    5.0030    1.1831   18.5304 C   0  0  0  0  0  0  0  0  0  0  0  0
    5.7818    0.2581   17.8333 C   0  0  0  0  0  0  0  0  0  0  0  0
  1  2  2  0
  2  3  1  0
  3  4  2  0
  4  5  1  0
  5  6  1  0
  6  7  1  0
  7  8  1  0
  8  9  1  0
  9 10  1  0
 10 11  1  0
 11 12  1  0
 12 13  1  0
 13 14  1  0
 14 15  1  0
 15 16  1  0
 16 17  1  0
 17 18  1  0
 18 19  1  0
 19 20  1  0
 20 21  1  0
 21 22  2  0
 22 23  1  0
 23 24  2  0
 24 25  1  0
 25 26  2  0
  4 27  1  0
 27 28  2  0
 28  1  1  0
 26 21  1  0
M  END
