
     RDKit          3D

 35 37  0  0  0  0  0  0  0  0999 V2000
    6.2112   -4.9596   21.0077 C   0  0  0  0  0  0  0  0  0  0  0  0
    5.4010   -5.6415   22.0973 C   0  0  0  0  0  0  0  0  0  0  0  0
    5.9607   -5.2613   23.3630 O   0  0  0  0  0  0  0  0  0  0  0  0
    5.2541   -5.8347   24.3858 C   0  0  0  0  0  0  0  0  0  0  0  0
    4.1786   -6.6652   24.0603 C   0  0  0  0  0  0  0  0  0  0  0  0
    3.4519   -7.2899   25.0738 C   0  0  0  0  0  0  0  0  0  0  0  0
    3.7878   -7.0684   26.4112 C   0  0  0  0  0  0  0  0  0  0  0  0
    4.8447   -6.2159   26.7349 C   0  0  0  0  0  0  0  0  0  0  0  0
    5.5655   -5.5788   25.7232 C   0  0  0  0  0  0  0  0  0  0  0  0
    6.5938   -4.7728   26.1244 O   0  0  0  0  0  0  0  0  0  0  0  0
    6.8380   -4.8699   27.5413 C   0  0  0  0  0  0  0  0  0  0  0  0
    8.0759   -4.0117   27.8379 C   0  0  2  0  0  0  0  0  0  0  0  0
    8.1557   -2.9518   26.8649 O   0  0  0  0  0  0  0  0  0  0  0  0
    9.3948   -4.8109   27.7951 C   0  0  0  0  0  0  0  0  0  0  0  0
   10.0485   -4.9053   26.4806 N   0  0  0  0  0  0  0  0  0  0  0  0
    9.6819   -6.1259   25.7663 C   0  0  0  0  0  0  0  0  0  0  0  0
   11.5134   -4.7231   26.5636 C   0  0  0  0  0  0  0  0  0  0  0  0
   12.1351   -3.7387   25.5895 C   0  0  0  0  0  0  0  0  0  0  0  0
   13.4347   -3.2544   25.7998 C   0  0  0  0  0  0  0  0  0  0  0  0
   13.9787   -2.2973   24.9476 C   0  0  0  0  0  0  0  0  0  0  0  0
   13.2386   -1.8389   23.8564 C   0  0  0  0  0  0  0  0  0  0  0  0
   13.7294   -0.8149   23.0887 O   0  0  0  0  0  0  0  0  0  0  0  0
   13.7502    0.4439   23.7814 C   0  0  0  0  0  0  0  0  0  0  0  0
   12.5177    1.2379   23.3154 C   0  0  0  0  0  0  0  0  0  0  0  0
   12.2928    2.5246   24.0002 N   0  0  0  0  0  0  0  0  0  0  0  0
   13.4451    3.4277   23.8265 C   0  0  0  0  0  0  0  0  0  0  0  0
   13.2670    4.4359   22.6914 C   0  0  0  0  0  0  0  0  0  0  0  0
   12.0392    5.3338   22.9187 C   0  0  0  0  0  0  0  0  0  0  0  0
   12.4349    6.6994   23.4815 C   0  0  0  0  0  0  0  0  0  0  0  0
   11.0062    4.6549   23.8323 C   0  0  0  0  0  0  0  0  0  0  0  0
   11.0090    3.1389   23.6239 C   0  0  0  0  0  0  0  0  0  0  0  0
   11.9434   -2.3182   23.6126 C   0  0  0  0  0  0  0  0  0  0  0  0
   11.3048   -1.8007   22.5167 O   0  0  0  0  0  0  0  0  0  0  0  0
    9.8948   -1.6398   22.6009 C   0  0  0  0  0  0  0  0  0  0  0  0
   11.4046   -3.2746   24.4800 C   0  0  0  0  0  0  0  0  0  0  0  0
  1  2  1  0
  2  3  1  0
  3  4  1  0
  4  5  2  0
  5  6  1  0
  6  7  2  0
  7  8  1  0
  8  9  2  0
  9 10  1  0
 10 11  1  0
 11 12  1  0
 12 13  1  6
 12 14  1  0
 14 15  1  0
 15 16  1  0
 15 17  1  0
 17 18  1  0
 18 19  2  0
 19 20  1  0
 20 21  2  0
 21 22  1  0
 22 23  1  0
 23 24  1  0
 24 25  1  0
 25 26  1  0
 26 27  1  0
 27 28  1  0
 28 29  1  0
 28 30  1  0
 30 31  1  0
 21 32  1  0
 32 33  1  0
 33 34  1  0
 32 35  2  0
  9  4  1  0
 35 18  1  0
 31 25  1  0
M  END
