
     RDKit          3D

 33 35  0  0  0  0  0  0  0  0999 V2000
    8.4853    4.7546   23.7599 N   0  0  0  0  0  0  0  0  0  0  0  0
    9.4638    3.7956   24.2672 C   0  0  0  0  0  0  0  0  0  0  0  0
   10.6629    3.5268   23.3351 C   0  0  2  0  0  0  0  0  0  0  0  0
   11.4776    2.5235   23.9708 O   0  0  0  0  0  0  0  0  0  0  0  0
   12.5649    2.0831   23.1506 C   0  0  2  0  0  0  0  0  0  0  0  0
   13.2913    1.0587   23.8236 O   0  0  0  0  0  0  0  0  0  0  0  0
   12.4884   -0.0101   24.3528 C   0  0  2  0  0  0  0  0  0  0  0  0
   13.3355   -1.0757   25.1026 C   0  0  2  0  0  0  0  0  0  0  0  0
   14.4548   -1.5382   24.2623 N   0  0  0  0  0  0  0  0  0  0  0  0
   12.4663   -2.2584   25.5537 C   0  0  0  0  0  0  0  0  0  0  0  0
   11.6073   -2.8500   24.4294 C   0  0  1  0  0  0  0  0  0  0  0  0
   10.7192   -3.8893   24.9963 N   0  0  0  0  0  0  0  0  0  0  0  0
   10.7674   -1.7493   23.7408 C   0  0  2  0  0  0  0  0  0  0  0  0
    9.9855   -2.3548   22.6957 O   0  0  0  0  0  0  0  0  0  0  0  0
    8.6400   -1.8754   22.6548 C   0  0  1  0  0  0  0  0  0  0  0  0
    8.3166   -1.3706   21.3614 O   0  0  0  0  0  0  0  0  0  0  0  0
    6.9985   -0.8081   21.3104 C   0  0  1  0  0  0  0  0  0  0  0  0
    6.8151   -0.1601   19.9343 C   0  0  0  0  0  0  0  0  0  0  0  0
    7.5483   -0.8723   18.9431 O   0  0  0  0  0  0  0  0  0  0  0  0
    5.9330   -1.8837   21.5893 C   0  0  1  0  0  0  0  0  0  0  0  0
    5.9384   -2.8651   20.5424 O   0  0  0  0  0  0  0  0  0  0  0  0
    6.2150   -2.5764   22.9410 C   0  0  1  0  0  0  0  0  0  0  0  0
    5.3001   -3.7355   23.1046 N   0  0  0  0  0  0  0  0  0  0  0  0
    7.6879   -3.0337   23.0409 C   0  0  1  0  0  0  0  0  0  0  0  0
    7.8668   -4.1854   22.1900 O   0  0  0  0  0  0  0  0  0  0  0  0
   11.6973   -0.6486   23.1830 C   0  0  2  0  0  0  0  0  0  0  0  0
   12.5701   -1.1931   22.1790 O   0  0  0  0  0  0  0  0  0  0  0  0
   13.5185    3.2601   22.8308 C   0  0  2  0  0  0  0  0  0  0  0  0
   14.1646    3.7838   24.0076 O   0  0  0  0  0  0  0  0  0  0  0  0
   12.7067    4.3825   22.1689 C   0  0  2  0  0  0  0  0  0  0  0  0
   13.5368    5.5256   21.9410 O   0  0  0  0  0  0  0  0  0  0  0  0
   11.5050    4.7835   23.0421 C   0  0  2  0  0  0  0  0  0  0  0  0
   11.9965    5.3568   24.2670 O   0  0  0  0  0  0  0  0  0  0  0  0
  1  2  1  0
  3  2  1  1
  3  4  1  0
  4  5  1  0
  5  6  1  1
  7  6  1  6
  7  8  1  0
  8  9  1  6
  8 10  1  0
 10 11  1  0
 11 12  1  1
 11 13  1  0
 13 14  1  6
 15 14  1  6
 15 16  1  0
 16 17  1  0
 17 18  1  6
 18 19  1  0
 17 20  1  0
 20 21  1  6
 20 22  1  0
 22 23  1  6
 22 24  1  0
 24 25  1  6
 13 26  1  0
 26 27  1  6
  5 28  1  0
 28 29  1  1
 28 30  1  0
 30 31  1  1
 30 32  1  0
 32 33  1  1
 32  3  1  0
 26  7  1  0
 24 15  1  0
M  END
