
     RDKit          3D

 34 36  0  0  0  0  0  0  0  0999 V2000
    8.3025   -3.9854   26.1411 O   0  0  0  0  0  0  0  0  0  0  0  0
    8.3654   -5.3707   25.7658 C   0  0  2  0  0  0  0  0  0  0  0  0
    9.6520   -5.9718   26.3638 C   0  0  0  0  0  0  0  0  0  0  0  0
   10.8714   -5.4120   25.7530 N   0  0  0  0  0  0  0  0  0  0  0  0
   11.5255   -4.4289   26.6210 C   0  0  0  0  0  0  0  0  0  0  0  0
   12.1287   -3.3155   25.7983 C   0  0  0  0  0  0  0  0  0  0  0  0
   11.3099   -2.4543   25.0552 C   0  0  0  0  0  0  0  0  0  0  0  0
   11.8679   -1.4163   24.3047 C   0  0  0  0  0  0  0  0  0  0  0  0
   13.2543   -1.2111   24.2931 C   0  0  0  0  0  0  0  0  0  0  0  0
   13.8613   -0.1053   23.4624 C   0  0  0  0  0  0  0  0  0  0  0  0
   13.4434    1.2024   23.9714 N   0  0  0  0  0  0  0  0  0  0  0  0
   13.5422    2.2606   22.9457 C   0  0  0  0  0  0  0  0  0  0  0  0
   13.0532    3.6229   23.4775 C   0  0  1  0  0  0  0  0  0  0  0  0
   14.1742    4.3406   24.0152 O   0  0  0  0  0  0  0  0  0  0  0  0
   12.3566    4.4630   22.3985 C   0  0  0  0  0  0  0  0  0  0  0  0
   12.1899    5.8165   22.8351 O   0  0  0  0  0  0  0  0  0  0  0  0
   11.1582    5.9566   23.8116 C   0  0  0  0  0  0  0  0  0  0  0  0
    9.7943    5.7363   23.2046 C   0  0  0  0  0  0  0  0  0  0  0  0
    9.1665    6.7507   22.4692 C   0  0  0  0  0  0  0  0  0  0  0  0
    7.9089    6.5367   21.9018 C   0  0  0  0  0  0  0  0  0  0  0  0
    7.2697    5.3080   22.0599 C   0  0  0  0  0  0  0  0  0  0  0  0
    7.8879    4.2897   22.7833 C   0  0  0  0  0  0  0  0  0  0  0  0
    9.1447    4.5015   23.3506 C   0  0  0  0  0  0  0  0  0  0  0  0
   14.0726   -2.0722   25.0364 C   0  0  0  0  0  0  0  0  0  0  0  0
   13.5145   -3.1087   25.7887 C   0  0  0  0  0  0  0  0  0  0  0  0
    8.3572   -5.5013   24.2372 C   0  0  0  0  0  0  0  0  0  0  0  0
    7.0073   -5.4165   23.7626 O   0  0  0  0  0  0  0  0  0  0  0  0
    6.9161   -5.4611   22.3378 C   0  0  0  0  0  0  0  0  0  0  0  0
    6.6978   -4.1030   21.7132 C   0  0  0  0  0  0  0  0  0  0  0  0
    5.9004   -3.9764   20.5660 C   0  0  0  0  0  0  0  0  0  0  0  0
    5.6675   -2.7217   19.9995 C   0  0  0  0  0  0  0  0  0  0  0  0
    6.2206   -1.5802   20.5773 C   0  0  0  0  0  0  0  0  0  0  0  0
    7.0032   -1.6914   21.7250 C   0  0  0  0  0  0  0  0  0  0  0  0
    7.2356   -2.9448   22.2933 C   0  0  0  0  0  0  0  0  0  0  0  0
  2  1  1  6
  2  3  1  0
  3  4  1  0
  4  5  1  0
  5  6  1  0
  6  7  2  0
  7  8  1  0
  8  9  2  0
  9 10  1  0
 10 11  1  0
 11 12  1  0
 12 13  1  0
 13 14  1  6
 13 15  1  0
 15 16  1  0
 16 17  1  0
 17 18  1  0
 18 19  2  0
 19 20  1  0
 20 21  2  0
 21 22  1  0
 22 23  2  0
  9 24  1  0
 24 25  2  0
  2 26  1  0
 26 27  1  0
 27 28  1  0
 28 29  1  0
 29 30  2  0
 30 31  1  0
 31 32  2  0
 32 33  1  0
 33 34  2  0
 25  6  1  0
 34 29  1  0
 23 18  1  0
M  END
