
     RDKit          3D

 33 36  0  0  0  0  0  0  0  0999 V2000
    7.4147   -0.0859   18.3936 O   0  0  0  0  0  0  0  0  0  0  0  0
    6.6116   -0.6029   19.4795 S   0  0  0  0  0  0  0  0  0  0  0  0
    5.9183   -1.8682   19.3822 O   0  0  0  0  0  0  0  0  0  0  0  0
    5.4474    0.5410   19.8527 N   0  0  0  0  0  0  0  0  0  0  0  0
    4.7428    1.2487   18.7779 C   0  0  0  0  0  0  0  0  0  0  0  0
    3.5232    1.9865   19.3635 C   0  0  0  0  0  0  0  0  0  0  0  0
    3.8325    3.3311   19.8800 N   0  0  0  0  0  0  0  0  0  0  0  0
    4.8064    3.2533   20.9871 C   0  0  0  0  0  0  0  0  0  0  0  0
    5.2086    4.6520   21.5245 C   0  0  0  0  0  0  0  0  0  0  0  0
    4.2815    5.7416   21.1613 N   0  0  0  0  0  0  0  0  0  0  0  0
    2.9017    5.2438   21.2792 C   0  0  0  0  0  0  0  0  0  0  0  0
    2.6156    4.0417   20.3412 C   0  0  0  0  0  0  0  0  0  0  0  0
    7.6070   -0.6335   20.9477 C   0  0  0  0  0  0  0  0  0  0  0  0
    7.8293   -1.8391   21.6111 C   0  0  0  0  0  0  0  0  0  0  0  0
    8.5849   -1.8496   22.7845 C   0  0  0  0  0  0  0  0  0  0  0  0
    9.0991   -0.6607   23.3164 C   0  0  0  0  0  0  0  0  0  0  0  0
    9.8662   -0.5951   24.5017 N   0  0  0  0  0  0  0  0  0  0  0  0
   11.1378   -1.3128   24.6280 C   0  0  0  0  0  0  0  0  0  0  0  0
   12.0280   -0.5645   25.6368 C   0  0  0  0  0  0  0  0  0  0  0  0
   13.4120   -1.1983   25.7486 C   0  0  0  0  0  0  0  0  0  0  0  0
   14.0974   -1.2939   24.3895 C   0  0  0  0  0  0  0  0  0  0  0  0
   13.2215   -2.0130   23.3685 C   0  0  0  0  0  0  0  0  0  0  0  0
   11.8388   -1.3737   23.2627 C   0  0  0  0  0  0  0  0  0  0  0  0
    8.9329    0.5568   22.5862 C   0  0  0  0  0  0  0  0  0  0  0  0
    9.4953    1.7270   23.1430 N   0  0  0  0  0  0  0  0  0  0  0  0
    9.8018    2.8582   22.2808 C   0  0  0  0  0  0  0  0  0  0  0  0
   11.0874    3.4979   22.7496 C   0  0  0  0  0  0  0  0  0  0  0  0
   11.0785    4.8003   23.2715 C   0  0  0  0  0  0  0  0  0  0  0  0
   12.2594    5.3928   23.7208 C   0  0  0  0  0  0  0  0  0  0  0  0
   13.4597    4.6877   23.6588 C   0  0  0  0  0  0  0  0  0  0  0  0
   13.4800    3.3888   23.1526 C   0  0  0  0  0  0  0  0  0  0  0  0
   12.2993    2.7938   22.7036 C   0  0  0  0  0  0  0  0  0  0  0  0
    8.1337    0.5641   21.4390 C   0  0  0  0  0  0  0  0  0  0  0  0
  1  2  2  0
  2  3  2  0
  2  4  1  0
  4  5  1  0
  5  6  1  0
  6  7  1  0
  7  8  1  0
  8  9  1  0
  9 10  1  0
 10 11  1  0
 11 12  1  0
  2 13  1  0
 13 14  2  0
 14 15  1  0
 15 16  2  0
 16 17  1  0
 17 18  1  0
 18 19  1  0
 19 20  1  0
 20 21  1  0
 21 22  1  0
 22 23  1  0
 16 24  1  0
 24 25  1  0
 25 26  1  0
 26 27  1  0
 27 28  2  0
 28 29  1  0
 29 30  2  0
 30 31  1  0
 31 32  2  0
 24 33  2  0
 12  7  1  0
 33 13  1  0
 23 18  1  0
 32 27  1  0
M  END
