
     RDKit          3D

 32 36  0  0  0  0  0  0  0  0999 V2000
    3.1443    7.6754   15.7190 C   0  0  0  0  0  0  0  0  0  0  0  0
    2.5458    7.0281   14.5541 N   0  0  0  0  0  0  0  0  0  0  0  0
    1.2280    7.5902   14.2738 C   0  0  0  0  0  0  0  0  0  0  0  0
    2.5229    5.5592   14.6589 C   0  0  0  0  0  0  0  0  0  0  0  0
    1.7218    4.8823   15.8031 C   0  0  0  0  0  0  0  0  0  0  0  0
    2.1867    5.2694   17.1364 N   0  0  0  0  0  0  0  0  0  0  0  0
    1.3048    4.7691   18.1983 C   0  0  0  0  0  0  0  0  0  0  0  0
    2.1245    4.2689   19.4087 C   0  0  1  0  0  0  0  0  0  0  0  0
    1.2584    4.2472   20.5587 O   0  0  0  0  0  0  0  0  0  0  0  0
    2.7421    2.8729   19.1500 C   0  0  0  0  0  0  0  0  0  0  0  0
    4.0696    2.7622   19.8009 N   0  0  0  0  0  0  0  0  0  0  0  0
    3.9729    3.2502   21.2044 C   0  0  0  0  0  0  0  0  0  0  0  0
    5.3336    3.3317   21.9136 C   0  0  0  0  0  0  0  0  0  0  0  0
    6.1667    2.1856   21.6106 N   0  0  0  0  0  0  0  0  0  0  0  0
    7.3875    1.8707   22.1596 C   0  0  0  0  0  0  0  0  0  0  0  0
    8.0854    2.4276   23.2391 C   0  0  0  0  0  0  0  0  0  0  0  0
    9.3487    1.9069   23.5436 C   0  0  0  0  0  0  0  0  0  0  0  0
    9.9191    0.8680   22.7969 C   0  0  0  0  0  0  0  0  0  0  0  0
   11.3012    0.3529   23.1624 C   0  0  0  0  0  0  0  0  0  0  0  0
   12.3482    1.4796   23.1879 C   0  0  0  0  0  0  0  0  0  0  0  0
   13.7331    0.9407   23.5425 C   0  0  0  0  0  0  0  0  0  0  0  0
   13.7175    0.1715   24.8605 C   0  0  0  0  0  0  0  0  0  0  0  0
   12.6784   -0.9463   24.8467 C   0  0  0  0  0  0  0  0  0  0  0  0
   11.2889   -0.4189   24.4936 C   0  0  0  0  0  0  0  0  0  0  0  0
    9.1995    0.3310   21.7133 C   0  0  0  0  0  0  0  0  0  0  0  0
    7.9189    0.8267   21.3906 C   0  0  0  0  0  0  0  0  0  0  0  0
    6.9670    0.5219   20.3752 C   0  0  0  0  0  0  0  0  0  0  0  0
    5.8782    1.3382   20.5835 C   0  0  0  0  0  0  0  0  0  0  0  0
    4.6034    1.3833   19.8017 C   0  0  2  0  0  0  0  0  0  0  0  0
    4.9324    0.8143   18.3923 C   0  0  0  0  0  0  0  0  0  0  0  0
    5.6954   -0.5302   18.4882 C   0  0  0  0  0  0  0  0  0  0  0  0
    7.0477   -0.4143   19.2208 C   0  0  0  0  0  0  0  0  0  0  0  0
  1  2  1  0
  2  3  1  0
  2  4  1  0
  4  5  1  0
  5  6  1  0
  6  7  1  0
  7  8  1  0
  8  9  1  1
  8 10  1  0
 10 11  1  0
 11 12  1  0
 12 13  1  0
 13 14  1  0
 14 15  1  0
 15 16  2  0
 16 17  1  0
 17 18  2  0
 18 19  1  0
 19 20  1  0
 20 21  1  0
 21 22  1  0
 22 23  1  0
 23 24  1  0
 18 25  1  0
 25 26  2  0
 26 27  1  0
 27 28  2  0
 28 29  1  0
 29 30  1  6
 30 31  1  0
 31 32  1  0
 29 11  1  0
 28 14  1  0
 26 15  1  0
 32 27  1  0
 24 19  1  0
M  END
