
     RDKit          3D

 30 30  0  0  0  0  0  0  0  0999 V2000
   11.7600    6.1093   23.4182 C   0  0  0  0  0  0  0  0  0  0  0  0
   13.1991    6.0740   22.9393 C   0  0  0  0  0  0  0  0  0  0  0  0
   13.8045    4.8246   23.2967 O   0  0  0  0  0  0  0  0  0  0  0  0
   13.4465    3.7512   22.5362 C   0  0  0  0  0  0  0  0  0  0  0  0
   12.9398    3.8108   21.4208 O   0  0  0  0  0  0  0  0  0  0  0  0
   13.7695    2.4447   23.2502 C   0  0  0  0  0  0  0  0  0  0  0  0
   12.5802    1.8553   23.9134 N   0  0  0  0  0  0  0  0  0  0  0  0
   12.9507    0.9322   25.0115 C   0  0  0  0  0  0  0  0  0  0  0  0
   13.7726   -0.3351   24.6476 C   0  0  0  0  0  0  0  0  0  0  0  0
   13.7713   -1.3916   25.6746 N   0  0  0  0  0  0  0  0  0  0  0  0
   12.4859   -2.0926   25.8013 C   0  0  0  0  0  0  0  0  0  0  0  0
   12.1453   -3.0455   24.6221 C   0  0  0  0  0  0  0  0  0  0  0  0
   10.7169   -3.4028   24.4302 N   0  0  0  0  0  0  0  0  0  0  0  0
   10.1560   -4.1206   25.6024 C   0  0  0  0  0  0  0  0  0  0  0  0
    9.1314   -5.1916   25.2200 C   0  0  0  0  0  0  0  0  0  0  0  0
    8.7653   -5.4724   24.0867 O   0  0  0  0  0  0  0  0  0  0  0  0
    8.6609   -5.7839   26.3608 O   0  0  0  0  0  0  0  0  0  0  0  0
    9.0648   -5.1665   27.5921 C   0  0  0  0  0  0  0  0  0  0  0  0
    8.4258   -5.8847   28.7656 C   0  0  0  0  0  0  0  0  0  0  0  0
    9.8621   -2.2430   24.0929 C   0  0  0  0  0  0  0  0  0  0  0  0
   10.1891   -1.5439   22.7399 C   0  0  0  0  0  0  0  0  0  0  0  0
    9.6407   -0.1821   22.5324 N   0  0  0  0  0  0  0  0  0  0  0  0
    8.1679   -0.1609   22.6758 C   0  0  0  0  0  0  0  0  0  0  0  0
    7.4689    0.4738   21.4687 C   0  0  0  0  0  0  0  0  0  0  0  0
    7.7364    1.5495   20.9499 O   0  0  0  0  0  0  0  0  0  0  0  0
    6.4798   -0.3714   21.0415 O   0  0  0  0  0  0  0  0  0  0  0  0
    5.8415   -0.0065   19.8084 C   0  0  0  0  0  0  0  0  0  0  0  0
    6.6396   -0.5296   18.6288 C   0  0  0  0  0  0  0  0  0  0  0  0
   10.2954    0.8286   23.3934 C   0  0  0  0  0  0  0  0  0  0  0  0
   11.7102    1.2277   22.8899 C   0  0  0  0  0  0  0  0  0  0  0  0
  1  2  1  0
  2  3  1  0
  3  4  1  0
  4  5  2  0
  4  6  1  0
  6  7  1  0
  7  8  1  0
  8  9  1  0
  9 10  1  0
 10 11  1  0
 11 12  1  0
 12 13  1  0
 13 14  1  0
 14 15  1  0
 15 16  2  0
 15 17  1  0
 17 18  1  0
 18 19  1  0
 13 20  1  0
 20 21  1  0
 21 22  1  0
 22 23  1  0
 23 24  1  0
 24 25  2  0
 24 26  1  0
 26 27  1  0
 27 28  1  0
 22 29  1  0
 29 30  1  0
 30  7  1  0
M  END
