
     RDKit          3D

 33 35  0  0  0  0  0  0  0  0999 V2000
    5.4494   -5.1842   22.0453 C   0  0  0  0  0  0  0  0  0  0  0  0
    5.9270   -4.2380   20.9570 C   0  0  0  0  0  0  0  0  0  0  0  0
    5.7625   -2.8817   21.3659 O   0  0  0  0  0  0  0  0  0  0  0  0
    6.8714   -2.0796   21.4665 C   0  0  0  0  0  0  0  0  0  0  0  0
    8.1154   -2.4919   21.9542 C   0  0  0  0  0  0  0  0  0  0  0  0
    9.2009   -1.6003   22.0119 C   0  0  0  0  0  0  0  0  0  0  0  0
   10.5407   -2.0669   22.5400 C   0  0  0  0  0  0  0  0  0  0  0  0
   11.1401   -1.1100   23.4762 N   0  0  0  0  0  0  0  0  0  0  0  0
   11.8438   -1.7689   24.5875 C   0  0  0  0  0  0  0  0  0  0  0  0
   12.8407   -0.7089   25.0498 C   0  0  1  0  0  0  0  0  0  0  0  0
   13.8889   -1.2210   25.8702 O   0  0  0  0  0  0  0  0  0  0  0  0
   13.3777   -0.2092   23.7054 C   0  0  2  0  0  0  0  0  0  0  0  0
   14.3270   -1.1719   23.1931 O   0  0  0  0  0  0  0  0  0  0  0  0
   14.0591    1.1600   23.7705 C   0  0  0  0  0  0  0  0  0  0  0  0
   13.2707    2.1931   23.1183 N   0  0  0  0  0  0  0  0  0  0  0  0
   13.5514    3.5311   23.2831 C   0  0  0  0  0  0  0  0  0  0  0  0
   14.4463    3.9555   24.0093 O   0  0  0  0  0  0  0  0  0  0  0  0
   12.6061    4.4562   22.5135 C   0  0  0  0  0  0  0  0  0  0  0  0
   13.1548    5.7661   22.3745 O   0  0  0  0  0  0  0  0  0  0  0  0
   12.5707    6.6724   23.3000 C   0  0  0  0  0  0  0  0  0  0  0  0
   12.1314   -0.2321   22.8051 C   0  0  0  0  0  0  0  0  0  0  0  0
    9.0292   -0.2848   21.5654 C   0  0  0  0  0  0  0  0  0  0  0  0
    7.7968    0.1334   21.0628 C   0  0  0  0  0  0  0  0  0  0  0  0
    6.7244   -0.7619   20.9957 C   0  0  0  0  0  0  0  0  0  0  0  0
    5.4842   -0.3982   20.5329 O   0  0  0  0  0  0  0  0  0  0  0  0
    5.4408    0.0222   19.1661 C   0  0  0  0  0  0  0  0  0  0  0  0
    4.1190    0.7737   18.9158 C   0  0  0  0  0  0  0  0  0  0  0  0
    4.2227    2.2501   18.9238 N   0  0  0  0  0  0  0  0  0  0  0  0
    4.9578    2.7208   20.1218 C   0  0  0  0  0  0  0  0  0  0  0  0
    4.1504    2.6473   21.4324 C   0  0  0  0  0  0  0  0  0  0  0  0
    2.8943    3.3279   21.3234 O   0  0  0  0  0  0  0  0  0  0  0  0
    2.1274    2.8087   20.2262 C   0  0  0  0  0  0  0  0  0  0  0  0
    2.9097    2.9361   18.9092 C   0  0  0  0  0  0  0  0  0  0  0  0
  1  2  1  0
  2  3  1  0
  3  4  1  0
  4  5  2  0
  5  6  1  0
  6  7  1  0
  7  8  1  0
  8  9  1  0
  9 10  1  0
 10 11  1  1
 10 12  1  0
 12 13  1  6
 12 14  1  0
 14 15  1  0
 15 16  1  0
 16 17  2  0
 16 18  1  0
 18 19  1  0
 19 20  1  0
 12 21  1  0
  6 22  2  0
 22 23  1  0
 23 24  2  0
 24 25  1  0
 25 26  1  0
 26 27  1  0
 27 28  1  0
 28 29  1  0
 29 30  1  0
 30 31  1  0
 31 32  1  0
 32 33  1  0
 24  4  1  0
 33 28  1  0
 21  8  1  0
M  END
