
     RDKit          3D

 34 36  0  0  0  0  0  0  0  0999 V2000
    5.9152   -5.9052   21.5068 C   0  0  0  0  0  0  0  0  0  0  0  0
    6.0441   -6.0253   22.9175 O   0  0  0  0  0  0  0  0  0  0  0  0
    6.9479   -5.1995   23.5275 C   0  0  0  0  0  0  0  0  0  0  0  0
    7.0602   -5.3763   24.9078 C   0  0  0  0  0  0  0  0  0  0  0  0
    7.9508   -4.6022   25.6557 C   0  0  0  0  0  0  0  0  0  0  0  0
    8.7456   -3.6321   25.0311 C   0  0  0  0  0  0  0  0  0  0  0  0
    9.7239   -2.8036   25.8381 C   0  0  0  0  0  0  0  0  0  0  0  0
   11.1243   -3.2577   25.6892 N   0  0  0  0  0  0  0  0  0  0  0  0
   11.1652   -4.7130   25.8694 C   0  0  0  0  0  0  0  0  0  0  0  0
   11.6699   -2.8666   24.3593 C   0  0  0  0  0  0  0  0  0  0  0  0
   12.9284   -1.9712   24.4695 C   0  0  1  0  0  0  0  0  0  0  0  0
   13.8019   -2.5363   25.4653 O   0  0  0  0  0  0  0  0  0  0  0  0
   13.7322   -1.8136   23.1797 C   0  0  0  0  0  0  0  0  0  0  0  0
   14.2893   -0.4035   23.2873 C   0  0  0  0  0  0  0  0  0  0  0  0
   13.1305    0.3322   23.8003 N   0  0  0  0  0  0  0  0  0  0  0  0
   13.4745    1.6716   24.2892 C   0  0  0  0  0  0  0  0  0  0  0  0
   12.4462    2.7176   23.9130 C   0  0  0  0  0  0  0  0  0  0  0  0
   11.0784    2.4433   24.0107 C   0  0  0  0  0  0  0  0  0  0  0  0
   10.1308    3.4019   23.6360 C   0  0  0  0  0  0  0  0  0  0  0  0
   10.5337    4.6525   23.1587 C   0  0  0  0  0  0  0  0  0  0  0  0
    9.6846    5.6557   22.7670 O   0  0  0  0  0  0  0  0  0  0  0  0
    8.5926    6.0228   23.6119 C   0  0  0  0  0  0  0  0  0  0  0  0
    7.6691    7.0110   22.9004 C   0  0  0  0  0  0  0  0  0  0  0  0
    7.2636    6.5393   21.5012 C   0  0  0  0  0  0  0  0  0  0  0  0
    6.0219    7.1563   21.0038 N   0  0  0  0  0  0  0  0  0  0  0  0
    6.0502    8.6172   21.1303 C   0  0  0  0  0  0  0  0  0  0  0  0
    4.8685    6.6288   21.7407 C   0  0  0  0  0  0  0  0  0  0  0  0
   11.9081    4.9435   23.0761 C   0  0  0  0  0  0  0  0  0  0  0  0
   12.2553    6.1845   22.5949 O   0  0  0  0  0  0  0  0  0  0  0  0
   13.1640    6.9214   23.4072 C   0  0  0  0  0  0  0  0  0  0  0  0
   12.8510    3.9720   23.4306 C   0  0  0  0  0  0  0  0  0  0  0  0
   12.5823   -0.5191   24.8727 C   0  0  0  0  0  0  0  0  0  0  0  0
    8.6348   -3.4632   23.6441 C   0  0  0  0  0  0  0  0  0  0  0  0
    7.7402   -4.2398   22.8973 C   0  0  0  0  0  0  0  0  0  0  0  0
  1  2  1  0
  2  3  1  0
  3  4  2  0
  4  5  1  0
  5  6  2  0
  6  7  1  0
  7  8  1  0
  8  9  1  0
  8 10  1  0
 10 11  1  0
 11 12  1  1
 11 13  1  0
 13 14  1  0
 14 15  1  0
 15 16  1  0
 16 17  1  0
 17 18  2  0
 18 19  1  0
 19 20  2  0
 20 21  1  0
 21 22  1  0
 22 23  1  0
 23 24  1  0
 24 25  1  0
 25 26  1  0
 25 27  1  0
 20 28  1  0
 28 29  1  0
 29 30  1  0
 28 31  2  0
 15 32  1  0
  6 33  1  0
 33 34  2  0
 34  3  1  0
 32 11  1  0
 31 17  1  0
M  END
