
     RDKit          3D

 33 37  0  0  0  0  0  0  0  0999 V2000
    3.7051    4.7996   21.3166 C   0  0  0  0  0  0  0  0  0  0  0  0
    4.0540    6.1565   21.9207 C   0  0  0  0  0  0  0  0  0  0  0  0
    5.4496    6.3778   22.3057 N   0  0  0  0  0  0  0  0  0  0  0  0
    6.3918    6.3119   21.1750 C   0  0  0  0  0  0  0  0  0  0  0  0
    7.8445    6.6284   21.6102 C   0  0  0  0  0  0  0  0  0  0  0  0
    8.2921    5.7401   22.6952 N   0  0  0  0  0  0  0  0  0  0  0  0
    9.6992    5.9181   23.0689 C   0  0  0  0  0  0  0  0  0  0  0  0
   10.5139    4.6719   23.3420 C   0  0  0  0  0  0  0  0  0  0  0  0
   11.7235    4.4496   22.6701 C   0  0  0  0  0  0  0  0  0  0  0  0
   12.4684    3.2898   22.9046 C   0  0  0  0  0  0  0  0  0  0  0  0
   12.0339    2.3292   23.8295 C   0  0  0  0  0  0  0  0  0  0  0  0
   12.8152    1.0587   24.0928 C   0  0  2  0  0  0  0  0  0  0  0  0
   12.0565   -0.2480   23.8136 C   0  0  0  0  0  0  0  0  0  0  0  0
   11.9683   -0.9236   25.1831 C   0  0  2  0  0  0  0  0  0  0  0  0
   13.1762   -0.3749   25.9261 C   0  0  2  0  0  0  0  0  0  0  0  0
   13.2432    1.0064   25.5034 N   0  0  0  0  0  0  0  0  0  0  0  0
   14.4182   -0.9987   25.5234 N   0  0  0  0  0  0  0  0  0  0  0  0
   14.3424   -2.4330   25.7111 C   0  0  0  0  0  0  0  0  0  0  0  0
   13.3162   -2.9555   24.8369 N   0  0  0  0  0  0  0  0  0  0  0  0
   12.0070   -2.4529   25.2221 C   0  0  2  0  0  0  0  0  0  0  0  0
   11.1290   -3.0971   24.2679 N   0  0  0  0  0  0  0  0  0  0  0  0
    9.9045   -3.7169   24.8042 C   0  0  2  0  0  0  0  0  0  0  0  0
   10.1576   -5.0091   25.5877 C   0  0  0  0  0  0  0  0  0  0  0  0
    8.7814   -3.8000   23.7752 C   0  0  0  0  0  0  0  0  0  0  0  0
    8.5533   -2.8051   22.8112 C   0  0  0  0  0  0  0  0  0  0  0  0
    7.5012   -2.9187   21.8978 C   0  0  0  0  0  0  0  0  0  0  0  0
    6.6585   -4.0264   21.9343 C   0  0  0  0  0  0  0  0  0  0  0  0
    6.8656   -5.0218   22.8842 C   0  0  0  0  0  0  0  0  0  0  0  0
    7.9172   -4.9089   23.7977 C   0  0  0  0  0  0  0  0  0  0  0  0
   10.8158    2.5479   24.4897 C   0  0  0  0  0  0  0  0  0  0  0  0
   10.0650    3.7024   24.2479 C   0  0  0  0  0  0  0  0  0  0  0  0
    7.3563    5.8210   23.8272 C   0  0  0  0  0  0  0  0  0  0  0  0
    5.9067    5.4946   23.3921 C   0  0  0  0  0  0  0  0  0  0  0  0
  1  2  1  0
  2  3  1  0
  3  4  1  0
  4  5  1  0
  5  6  1  0
  6  7  1  0
  7  8  1  0
  8  9  2  0
  9 10  1  0
 10 11  2  0
 12 11  1  1
 12 13  1  0
 14 13  1  6
 14 15  1  0
 15 16  1  6
 15 17  1  0
 17 18  1  0
 18 19  1  0
 19 20  1  0
 20 21  1  6
 21 22  1  0
 22 23  1  6
 22 24  1  0
 24 25  2  0
 25 26  1  0
 26 27  2  0
 27 28  1  0
 28 29  2  0
 11 30  1  0
 30 31  2  0
  6 32  1  0
 32 33  1  0
 33  3  1  0
 31  8  1  0
 16 12  1  0
 29 24  1  0
 20 14  1  0
M  END
