
     RDKit          3D

 32 33  0  0  0  0  0  0  0  0999 V2000
    4.8166    2.1678   20.1946 C   0  0  0  0  0  0  0  0  0  0  0  0
    4.1770    1.2011   19.2103 C   0  0  0  0  0  0  0  0  0  0  0  0
    5.1567    0.8056   18.1042 C   0  0  0  0  0  0  0  0  0  0  0  0
    6.4284    0.1475   18.6462 C   0  0  0  0  0  0  0  0  0  0  0  0
    6.1695   -1.1377   19.4196 C   0  0  0  0  0  0  0  0  0  0  0  0
    5.4679   -2.0480   18.9696 O   0  0  0  0  0  0  0  0  0  0  0  0
    6.7334   -1.3228   20.6466 N   0  0  0  0  0  0  0  0  0  0  0  0
    6.5927   -2.4143   21.4503 C   0  0  0  0  0  0  0  0  0  0  0  0
    5.7630   -3.4236   21.3721 N   0  0  0  0  0  0  0  0  0  0  0  0
    5.9397   -4.3170   22.4101 N   0  0  0  0  0  0  0  0  0  0  0  0
    6.8978   -3.9376   23.2313 C   0  0  0  0  0  0  0  0  0  0  0  0
    7.2881   -4.6741   24.4709 C   0  0  0  0  0  0  0  0  0  0  0  0
    8.6969   -5.2576   24.3741 C   0  0  0  0  0  0  0  0  0  0  0  0
    9.2890   -5.5297   25.6465 O   0  0  0  0  0  0  0  0  0  0  0  0
   10.7010   -5.3026   25.6942 C   0  0  0  0  0  0  0  0  0  0  0  0
   10.9785   -3.7944   25.6758 C   0  0  0  0  0  0  0  0  0  0  0  0
   12.1710   -3.4332   24.9707 O   0  0  0  0  0  0  0  0  0  0  0  0
   13.2913   -3.1952   25.8255 C   0  0  0  0  0  0  0  0  0  0  0  0
   14.3807   -2.4702   25.0390 C   0  0  0  0  0  0  0  0  0  0  0  0
   13.9917   -1.0495   24.7864 C   0  0  0  0  0  0  0  0  0  0  0  0
   13.7424   -0.1666   25.7339 N   0  0  0  0  0  0  0  0  0  0  0  0
   13.3759    1.0623   25.2157 N   0  0  0  0  0  0  0  0  0  0  0  0
   13.3773    1.0573   23.9070 C   0  0  0  0  0  0  0  0  0  0  0  0
   13.0822    2.0471   23.0116 N   0  0  0  0  0  0  0  0  0  0  0  0
   13.6124    3.3155   23.1206 C   0  0  0  0  0  0  0  0  0  0  0  0
   14.3811    3.7118   23.9874 O   0  0  0  0  0  0  0  0  0  0  0  0
   13.1201    4.2161   21.9962 C   0  0  0  0  0  0  0  0  0  0  0  0
   12.5648    5.5423   22.5111 C   0  0  0  0  0  0  0  0  0  0  0  0
   11.4953    5.3711   23.5918 C   0  0  0  0  0  0  0  0  0  0  0  0
   11.1039    6.6750   24.2694 C   0  0  0  0  0  0  0  0  0  0  0  0
   13.8263   -0.4300   23.1883 S   0  0  0  0  0  0  0  0  0  0  0  0
    7.6572   -2.4589   22.7822 S   0  0  0  0  0  0  0  0  0  0  0  0
  1  2  1  0
  2  3  1  0
  3  4  1  0
  4  5  1  0
  5  6  2  0
  5  7  1  0
  7  8  1  0
  8  9  2  0
  9 10  1  0
 10 11  2  0
 11 12  1  0
 12 13  1  0
 13 14  1  0
 14 15  1  0
 15 16  1  0
 16 17  1  0
 17 18  1  0
 18 19  1  0
 19 20  1  0
 20 21  2  0
 21 22  1  0
 22 23  2  0
 23 24  1  0
 24 25  1  0
 25 26  2  0
 25 27  1  0
 27 28  1  0
 28 29  1  0
 29 30  1  0
 23 31  1  0
 11 32  1  0
 32  8  1  0
 31 20  1  0
M  END
